
This summary file was generated by TurbSim (from OpenFAST-v3.5.3) on 04-Jan-2025 at 17:25:15.


Runtime Options:

   4683464  Random seed #1
    RANLUX  Type of random number generator
         F  Output binary HH turbulence parameters?
         T  Output formatted turbulence parameters?
         F  Output AeroDyn HH files?
         T  Output AeroDyn FF files?
         F  Output BLADED FF files?
         F  Output tower data?
         F  Output HAWC FF files?
         F  Output formatted FF files?
         T  Output coherent turbulence time step file?
 0 -  NONE  IEC turbulence models scaled to exact specified standard deviation


Turbine/Model Specifications:

        33  Vertical grid-point matrix dimension
        41  Horizontal grid-point matrix dimension
     0.500  Time step [seconds]
   660.000  Analysis time [seconds]
   660.000  Usable output time [seconds]
   170.000  Hub height [m]
   330.000  Grid height [m]
   405.000  Grid width [m]
     0.000  Vertical flow angle [degrees]
     0.000  Horizontal flow angle [degrees]


Meteorological Boundary Conditions:

    IECKAI  IEC Kaimal spectral model
         1  IEC standard: IEC 61400-1 Ed. 3: 2005
     5.000  Percent turbulence intensity, IEC 61400-1 Ed. 3: 2005
       NTM  IEC Normal Turbulence Model
       N/A  IEC Extreme Turbulence Model (ETM) "c" parameter [m/s]
       PL   Wind profile type
   170.000  Reference height [m]
     9.100  Reference wind speed [m/s]
       N/A  Jet height [m]
     0.060  Power law exponent
     0.030  Surface roughness length [m]


Non-IEC Meteorological Boundary Conditions:

       N/A  Site latitude [degrees]
       N/A  Gradient Richardson number
       N/A  Friction or shear velocity [m/s]
       N/A  Mixing layer depth [m]
       N/A  Mean hub u'w' Reynolds stress
       N/A  Mean hub u'v' Reynolds stress
       N/A  Mean hub v'w' Reynolds stress


Spatial Coherence Models:

       IEC  u-component coherence model
      NONE  v-component coherence model
      NONE  w-component coherence model
(   12.000, 0.353E-03)  u-component coherence parameters
                   N/A  v-component coherence parameters
                   N/A  w-component coherence parameters
       N/A  Coherence exponent


You have requested that the following file(s) be generated:

   1_Configuration/Inflow_files/TurbSim_input_temp.dat (formatted turbulence-parameter file)
   1_Configuration/Inflow_files/TurbSim_input_temp.bts (AeroDyn/TurbSim full-field wind file)


Turbulence Simulation Scaling Parameter Summary:

   Turbulence model used                            =  IEC Kaimal
   Turbulence characteristic                        =  User-specified
   IEC standard                                     =  IEC 61400-1 Ed. 3: 2005
   Mean wind speed at hub height                    =    9.100 m/s
   Characteristic value of standard deviation       =    0.455 m/s
   Turbulence scale                                 =   42.000 m
   u-component integral scale                       =  340.200 m
   Coherency scale                                  =  340.200 m
   Characteristic value of hub turbulence intensity =    5.000%
   Gradient Richardson number                       =    0.000

   Wind profile type                                =  Power law
   Power law exponent                               =    0.060
   Mean shear across rotor disk                     =    0.006 (m/s)/m
   Assumed rotor diameter                           =  330.000 m
   Surface roughness length                         =    0.030 m

   Nyquist frequency of turbulent wind field        =    1.000 Hz

   Number of time steps in the FFT                  =     1320
   Number of time steps output                      =     1320
   Number of points simulated                       =     1353


Mean Flow Angles:

   Vertical   =   0.0 degrees
   Horizontal =   0.0 degrees

Mean Wind Speed Profile:

   Height    Wind Speed   Horizontal Angle  Vertical Angle  U-comp (X)   V-comp (Y)   W-comp (Z)
     (m)        (m/s)         (degrees)       (degrees)       (m/s)        (m/s)        (m/s)   
   ------    ----------   ----------------  --------------  ----------   ----------   ----------
    335.0        9.48            0.00            0.00          9.48         0.00         0.00
    324.7        9.46            0.00            0.00          9.46         0.00         0.00
    314.4        9.44            0.00            0.00          9.44         0.00         0.00
    304.1        9.42            0.00            0.00          9.42         0.00         0.00
    293.8        9.40            0.00            0.00          9.40         0.00         0.00
    283.4        9.38            0.00            0.00          9.38         0.00         0.00
    273.1        9.36            0.00            0.00          9.36         0.00         0.00
    262.8        9.34            0.00            0.00          9.34         0.00         0.00
    252.5        9.32            0.00            0.00          9.32         0.00         0.00
    242.2        9.30            0.00            0.00          9.30         0.00         0.00
    231.9        9.27            0.00            0.00          9.27         0.00         0.00
    221.6        9.25            0.00            0.00          9.25         0.00         0.00
    211.2        9.22            0.00            0.00          9.22         0.00         0.00
    200.9        9.19            0.00            0.00          9.19         0.00         0.00
    190.6        9.16            0.00            0.00          9.16         0.00         0.00
    180.3        9.13            0.00            0.00          9.13         0.00         0.00
    170.0        9.10            0.00            0.00          9.10         0.00         0.00
    159.7        9.07            0.00            0.00          9.07         0.00         0.00
    149.4        9.03            0.00            0.00          9.03         0.00         0.00
    139.1        8.99            0.00            0.00          8.99         0.00         0.00
    128.8        8.95            0.00            0.00          8.95         0.00         0.00
    118.4        8.90            0.00            0.00          8.90         0.00         0.00
    108.1        8.86            0.00            0.00          8.86         0.00         0.00
     97.8        8.80            0.00            0.00          8.80         0.00         0.00
     87.5        8.74            0.00            0.00          8.74         0.00         0.00
     77.2        8.68            0.00            0.00          8.68         0.00         0.00
     66.9        8.60            0.00            0.00          8.60         0.00         0.00
     56.6        8.52            0.00            0.00          8.52         0.00         0.00
     46.2        8.42            0.00            0.00          8.42         0.00         0.00
     35.9        8.29            0.00            0.00          8.29         0.00         0.00
     25.6        8.12            0.00            0.00          8.12         0.00         0.00
     15.3        7.88            0.00            0.00          7.88         0.00         0.00
      5.0        7.36            0.00            0.00          7.36         0.00         0.00


Harvested Random Seeds after Generation of the Random Numbers:

     24891718 K 1
            0 K 2


Hub-Height Simulated Turbulence Statistical Summary:

   Type of Wind        Min (m/s)   Mean (m/s)    Max (m/s)  Sigma (m/s)       TI (%)
   ----------------    ---------   ----------    ---------  -----------       ------
   Longitudinal (u)         7.93         9.10        10.48        0.454        4.988
   Lateral (v)             -0.97        -0.00         1.06        0.347        3.811
   Vertical (w)            -0.77         0.00         0.81        0.210        2.307
   U component              7.93         9.10        10.48        0.454        4.988
   V component             -0.97        -0.00         1.06        0.347        3.811
   W component             -0.77         0.00         0.81        0.210        2.307
   Horizontal (U&V)         7.97         9.11        10.49        0.455        4.997
   Total                    7.97         9.11        10.49        0.455        4.997

                       Min Reynolds     Mean Reynolds    Max Reynolds    Correlation
   Product             Stress (m/s)^2   Stress (m/s)^2   Stress (m/s)^2  Coefficient
   ----------------    --------------   --------------   --------------  -----------
   u'w'                     -0.430             0.011             0.501         0.114
   u'v'                     -0.944             0.027             0.962         0.173
   v'w'                     -0.424             0.003             0.472         0.037


   Friction Velocity (Ustar)  =      0.104 m/s
   Maximum Instantaneous TKE  =      1.116 (m/s)^2
   Maximum Instantaneous CTKE =      0.515 (m/s)^2


Grid Point Variance Summary:

   Y-coord -202.50 -192.38 -182.25 -172.12 -162.00 -151.88 -141.75 -131.62 -121.50 -111.38 -101.25  -91.12  -81.00  -70.88  -60.75  -50.62  -40.50  -30.38  -20.25  -10.12    0.00   10.12   20.25   30.38   40.50   50.62   60.75   70.88   81.00   91.12  101.25  111.38  121.50  131.62  141.75  151.88  162.00  172.12  182.25  192.38  202.50

   Height   Standard deviation at grid points for the u component:
   335.00    0.429   0.392   0.356   0.367   0.362   0.393   0.374   0.400   0.395   0.420   0.443   0.369   0.365   0.357   0.350   0.361   0.380   0.377   0.410   0.443   0.445   0.453   0.475   0.512   0.565   0.601   0.578   0.627   0.626   0.628   0.628   0.617   0.542   0.543   0.552   0.486   0.460   0.463   0.434   0.408   0.433
   324.69    0.428   0.423   0.352   0.325   0.358   0.369   0.343   0.387   0.378   0.429   0.452   0.424   0.413   0.381   0.354   0.346   0.397   0.395   0.392   0.401   0.427   0.467   0.471   0.543   0.521   0.567   0.589   0.610   0.604   0.617   0.619   0.610   0.551   0.538   0.512   0.465   0.463   0.467   0.442   0.421   0.459
   314.38    0.435   0.399   0.353   0.357   0.384   0.397   0.418   0.432   0.413   0.482   0.437   0.452   0.448   0.434   0.381   0.370   0.404   0.405   0.422   0.440   0.456   0.480   0.509   0.562   0.577   0.570   0.568   0.593   0.595   0.601   0.572   0.535   0.507   0.516   0.505   0.496   0.469   0.438   0.453   0.486   0.477
   304.06    0.384   0.381   0.382   0.349   0.392   0.399   0.438   0.415   0.433   0.454   0.431   0.467   0.432   0.430   0.367   0.433   0.433   0.431   0.452   0.432   0.479   0.486   0.473   0.517   0.542   0.565   0.547   0.542   0.533   0.525   0.501   0.473   0.451   0.466   0.435   0.496   0.491   0.440   0.494   0.532   0.526
   293.75    0.374   0.380   0.353   0.376   0.395   0.393   0.410   0.412   0.408   0.432   0.449   0.425   0.417   0.399   0.386   0.428   0.413   0.425   0.424   0.462   0.494   0.478   0.472   0.518   0.532   0.558   0.535   0.524   0.517   0.491   0.493   0.459   0.447   0.446   0.469   0.472   0.480   0.481   0.488   0.473   0.515
   283.44    0.374   0.398   0.352   0.400   0.421   0.410   0.419   0.436   0.454   0.424   0.443   0.433   0.423   0.414   0.409   0.436   0.457   0.438   0.443   0.453   0.480   0.450   0.502   0.514   0.472   0.497   0.496   0.530   0.500   0.516   0.504   0.511   0.478   0.413   0.427   0.426   0.472   0.512   0.521   0.496   0.470
   273.12    0.389   0.378   0.382   0.418   0.434   0.428   0.427   0.426   0.456   0.453   0.459   0.453   0.461   0.478   0.456   0.464   0.465   0.447   0.449   0.472   0.449   0.466   0.472   0.482   0.462   0.487   0.475   0.485   0.462   0.481   0.479   0.491   0.479   0.451   0.417   0.407   0.446   0.486   0.483   0.465   0.457
   262.81    0.402   0.385   0.358   0.378   0.419   0.457   0.456   0.473   0.472   0.432   0.456   0.466   0.501   0.508   0.466   0.465   0.455   0.454   0.420   0.451   0.438   0.460   0.497   0.478   0.433   0.446   0.436   0.463   0.407   0.435   0.448   0.459   0.437   0.438   0.419   0.386   0.411   0.449   0.474   0.428   0.399
   252.50    0.434   0.416   0.354   0.387   0.395   0.454   0.462   0.444   0.459   0.431   0.413   0.469   0.466   0.488   0.479   0.506   0.477   0.473   0.457   0.443   0.409   0.449   0.488   0.448   0.460   0.477   0.459   0.447   0.433   0.435   0.415   0.418   0.434   0.427   0.444   0.398   0.439   0.408   0.448   0.443   0.431
   242.19    0.418   0.393   0.374   0.389   0.433   0.474   0.493   0.499   0.458   0.465   0.496   0.487   0.500   0.455   0.493   0.522   0.505   0.496   0.483   0.461   0.446   0.439   0.440   0.444   0.431   0.429   0.420   0.436   0.417   0.401   0.400   0.408   0.402   0.448   0.454   0.444   0.433   0.439   0.410   0.403   0.383
   231.88    0.427   0.408   0.376   0.383   0.404   0.452   0.483   0.470   0.492   0.518   0.496   0.512   0.493   0.494   0.518   0.523   0.494   0.493   0.469   0.471   0.450   0.439   0.404   0.413   0.418   0.408   0.384   0.419   0.406   0.429   0.432   0.430   0.438   0.485   0.476   0.440   0.427   0.435   0.401   0.381   0.395
   221.56    0.434   0.402   0.396   0.383   0.447   0.447   0.470   0.486   0.506   0.513   0.485   0.455   0.487   0.534   0.543   0.525   0.454   0.491   0.475   0.433   0.431   0.430   0.411   0.397   0.424   0.410   0.407   0.415   0.428   0.426   0.441   0.450   0.494   0.455   0.467   0.420   0.418   0.404   0.396   0.411   0.408
   211.25    0.419   0.425   0.422   0.444   0.435   0.462   0.487   0.496   0.505   0.484   0.485   0.489   0.508   0.546   0.550   0.533   0.493   0.475   0.503   0.456   0.439   0.455   0.411   0.413   0.415   0.409   0.384   0.388   0.407   0.423   0.384   0.421   0.438   0.437   0.447   0.427   0.402   0.411   0.395   0.395   0.383
   200.94    0.411   0.422   0.458   0.457   0.433   0.460   0.531   0.500   0.522   0.500   0.496   0.504   0.487   0.490   0.478   0.510   0.494   0.496   0.492   0.450   0.432   0.442   0.469   0.435   0.398   0.393   0.381   0.369   0.364   0.372   0.374   0.399   0.399   0.385   0.397   0.398   0.422   0.395   0.421   0.409   0.385
   190.62    0.393   0.450   0.488   0.493   0.467   0.482   0.524   0.518   0.488   0.511   0.510   0.452   0.485   0.482   0.467   0.487   0.503   0.469   0.476   0.480   0.438   0.426   0.436   0.431   0.374   0.374   0.381   0.361   0.386   0.395   0.422   0.378   0.364   0.370   0.369   0.363   0.376   0.390   0.387   0.380   0.387
   180.31    0.414   0.425   0.454   0.463   0.487   0.480   0.492   0.480   0.509   0.501   0.446   0.472   0.481   0.502   0.447   0.462   0.461   0.457   0.478   0.452   0.463   0.459   0.423   0.432   0.378   0.340   0.403   0.399   0.386   0.415   0.444   0.411   0.394   0.377   0.396   0.377   0.355   0.366   0.346   0.373   0.373
   170.00    0.424   0.449   0.452   0.428   0.442   0.453   0.434   0.459   0.438   0.484   0.454   0.467   0.485   0.528   0.509   0.468   0.434   0.414   0.451   0.465   0.454   0.402   0.422   0.405   0.397   0.382   0.379   0.394   0.395   0.418   0.406   0.386   0.367   0.385   0.364   0.348   0.331   0.359   0.331   0.331   0.397
   159.69    0.451   0.468   0.392   0.422   0.443   0.421   0.419   0.423   0.457   0.456   0.476   0.477   0.455   0.507   0.481   0.472   0.475   0.442   0.457   0.508   0.453   0.415   0.423   0.378   0.423   0.400   0.384   0.406   0.414   0.424   0.401   0.354   0.347   0.356   0.357   0.346   0.348   0.361   0.358   0.375   0.397
   149.38    0.427   0.417   0.445   0.421   0.411   0.417   0.409   0.374   0.419   0.435   0.439   0.443   0.488   0.503   0.498   0.436   0.421   0.410   0.493   0.475   0.473   0.431   0.408   0.365   0.368   0.383   0.401   0.413   0.401   0.386   0.376   0.371   0.332   0.337   0.346   0.327   0.339   0.358   0.379   0.406   0.441
   139.06    0.416   0.425   0.487   0.442   0.429   0.404   0.378   0.391   0.393   0.407   0.441   0.427   0.462   0.488   0.476   0.464   0.469   0.444   0.456   0.501   0.443   0.460   0.426   0.396   0.411   0.392   0.429   0.409   0.404   0.381   0.376   0.390   0.344   0.330   0.357   0.309   0.354   0.383   0.375   0.420   0.405
   128.75    0.432   0.434   0.455   0.433   0.444   0.411   0.401   0.379   0.369   0.428   0.442   0.488   0.495   0.483   0.473   0.467   0.435   0.435   0.420   0.444   0.430   0.453   0.427   0.415   0.404   0.424   0.425   0.428   0.421   0.394   0.384   0.360   0.367   0.339   0.326   0.377   0.366   0.407   0.430   0.419   0.464
   118.44    0.449   0.445   0.438   0.424   0.387   0.369   0.373   0.360   0.377   0.404   0.459   0.503   0.540   0.504   0.481   0.432   0.458   0.422   0.431   0.410   0.393   0.408   0.432   0.437   0.412   0.410   0.414   0.379   0.364   0.378   0.363   0.372   0.376   0.346   0.389   0.371   0.380   0.404   0.451   0.468   0.444
   108.12    0.396   0.420   0.429   0.411   0.418   0.412   0.374   0.376   0.365   0.460   0.509   0.538   0.509   0.541   0.519   0.446   0.444   0.388   0.395   0.401   0.409   0.400   0.444   0.451   0.404   0.422   0.396   0.380   0.368   0.336   0.341   0.359   0.379   0.350   0.361   0.366   0.414   0.436   0.437   0.436   0.467
    97.81    0.388   0.410   0.403   0.425   0.420   0.410   0.427   0.374   0.391   0.424   0.478   0.527   0.520   0.541   0.522   0.468   0.412   0.419   0.378   0.388   0.363   0.401   0.426   0.432   0.446   0.401   0.420   0.365   0.346   0.338   0.359   0.377   0.350   0.335   0.354   0.396   0.397   0.429   0.426   0.397   0.403
    87.50    0.365   0.377   0.387   0.358   0.420   0.416   0.404   0.390   0.405   0.417   0.441   0.480   0.475   0.472   0.481   0.479   0.432   0.414   0.399   0.380   0.404   0.436   0.443   0.427   0.429   0.427   0.392   0.361   0.365   0.356   0.354   0.382   0.361   0.379   0.377   0.410   0.439   0.416   0.434   0.384   0.406
    77.19    0.342   0.400   0.427   0.398   0.434   0.413   0.425   0.418   0.399   0.460   0.433   0.476   0.528   0.494   0.453   0.464   0.408   0.383   0.377   0.417   0.410   0.414   0.450   0.405   0.413   0.409   0.416   0.394   0.437   0.420   0.372   0.408   0.407   0.390   0.426   0.445   0.471   0.465   0.407   0.403   0.417
    66.88    0.430   0.400   0.411   0.420   0.406   0.412   0.399   0.412   0.416   0.399   0.425   0.446   0.472   0.482   0.445   0.430   0.424   0.390   0.413   0.387   0.411   0.396   0.444   0.424   0.409   0.424   0.406   0.436   0.448   0.400   0.373   0.412   0.406   0.421   0.458   0.452   0.446   0.451   0.420   0.386   0.405
    56.56    0.440   0.421   0.389   0.427   0.405   0.400   0.401   0.402   0.430   0.395   0.405   0.405   0.380   0.417   0.421   0.396   0.348   0.356   0.388   0.390   0.422   0.465   0.447   0.429   0.433   0.418   0.420   0.417   0.407   0.380   0.413   0.383   0.405   0.397   0.422   0.437   0.396   0.437   0.448   0.418   0.447
    46.25    0.423   0.425   0.430   0.425   0.407   0.413   0.417   0.377   0.379   0.403   0.377   0.398   0.393   0.370   0.398   0.387   0.360   0.351   0.392   0.383   0.428   0.459   0.464   0.446   0.465   0.444   0.388   0.414   0.396   0.397   0.398   0.401   0.421   0.420   0.419   0.434   0.408   0.429   0.431   0.421   0.464
    35.94    0.444   0.410   0.407   0.405   0.431   0.348   0.384   0.401   0.364   0.370   0.415   0.436   0.411   0.413   0.411   0.414   0.394   0.354   0.389   0.376   0.430   0.425   0.441   0.472   0.467   0.468   0.422   0.421   0.414   0.379   0.424   0.404   0.387   0.393   0.380   0.384   0.407   0.410   0.415   0.410   0.442
    25.62    0.420   0.371   0.389   0.419   0.419   0.429   0.389   0.408   0.373   0.358   0.411   0.428   0.393   0.388   0.418   0.393   0.386   0.355   0.364   0.403   0.454   0.456   0.460   0.464   0.504   0.447   0.424   0.375   0.348   0.397   0.374   0.395   0.412   0.380   0.406   0.400   0.403   0.404   0.416   0.419   0.435
    15.31    0.418   0.415   0.419   0.396   0.426   0.412   0.405   0.391   0.412   0.403   0.421   0.408   0.409   0.376   0.384   0.390   0.345   0.379   0.367   0.397   0.421   0.447   0.483   0.487   0.459   0.464   0.420   0.359   0.318   0.342   0.371   0.355   0.399   0.395   0.379   0.331   0.367   0.378   0.399   0.434   0.396
     5.00    0.424   0.430   0.425   0.440   0.426   0.406   0.429   0.435   0.405   0.405   0.429   0.402   0.383   0.382   0.374   0.389   0.365   0.370   0.394   0.382   0.440   0.472   0.468   0.473   0.479   0.505   0.433   0.362   0.366   0.339   0.352   0.349   0.361   0.385   0.368   0.349   0.392   0.393   0.395   0.410   0.422

   Height   Standard deviation at grid points for the v component:
   335.00    0.347   0.347   0.347   0.347   0.347   0.347   0.347   0.347   0.347   0.347   0.347   0.347   0.347   0.347   0.347   0.347   0.347   0.347   0.347   0.347   0.347   0.347   0.347   0.347   0.347   0.347   0.347   0.347   0.347   0.347   0.347   0.347   0.347   0.347   0.347   0.347   0.347   0.347   0.347   0.347   0.347
   324.69    0.347   0.347   0.347   0.347   0.347   0.347   0.347   0.347   0.347   0.347   0.347   0.347   0.347   0.347   0.347   0.347   0.347   0.347   0.347   0.347   0.347   0.347   0.347   0.347   0.347   0.347   0.347   0.347   0.347   0.347   0.347   0.347   0.347   0.347   0.347   0.347   0.347   0.347   0.347   0.347   0.347
   314.38    0.347   0.347   0.347   0.347   0.347   0.347   0.347   0.347   0.347   0.347   0.347   0.347   0.347   0.347   0.347   0.347   0.347   0.347   0.347   0.347   0.347   0.347   0.347   0.347   0.347   0.347   0.347   0.347   0.347   0.347   0.347   0.347   0.347   0.347   0.347   0.347   0.347   0.347   0.347   0.347   0.347
   304.06    0.347   0.347   0.347   0.347   0.347   0.347   0.347   0.347   0.347   0.347   0.347   0.347   0.347   0.347   0.347   0.347   0.347   0.347   0.347   0.347   0.347   0.347   0.347   0.347   0.347   0.347   0.347   0.347   0.347   0.347   0.347   0.347   0.347   0.347   0.347   0.347   0.347   0.347   0.347   0.347   0.347
   293.75    0.347   0.347   0.347   0.347   0.347   0.347   0.347   0.347   0.347   0.347   0.347   0.347   0.347   0.347   0.347   0.347   0.347   0.347   0.347   0.347   0.347   0.347   0.347   0.347   0.347   0.347   0.347   0.347   0.347   0.347   0.347   0.347   0.347   0.347   0.347   0.347   0.347   0.347   0.347   0.347   0.347
   283.44    0.347   0.347   0.347   0.347   0.347   0.347   0.347   0.347   0.347   0.347   0.347   0.347   0.347   0.347   0.347   0.347   0.347   0.347   0.347   0.347   0.347   0.347   0.347   0.347   0.347   0.347   0.347   0.347   0.347   0.347   0.347   0.347   0.347   0.347   0.347   0.347   0.347   0.347   0.347   0.347   0.347
   273.12    0.347   0.347   0.347   0.347   0.347   0.347   0.347   0.347   0.347   0.347   0.347   0.347   0.347   0.347   0.347   0.347   0.347   0.347   0.347   0.347   0.347   0.347   0.347   0.347   0.347   0.347   0.347   0.347   0.347   0.347   0.347   0.347   0.347   0.347   0.347   0.347   0.347   0.347   0.347   0.347   0.347
   262.81    0.347   0.347   0.347   0.347   0.347   0.347   0.347   0.347   0.347   0.347   0.347   0.347   0.347   0.347   0.347   0.347   0.347   0.347   0.347   0.347   0.347   0.347   0.347   0.347   0.347   0.347   0.347   0.347   0.347   0.347   0.347   0.347   0.347   0.347   0.347   0.347   0.347   0.347   0.347   0.347   0.347
   252.50    0.347   0.347   0.347   0.347   0.347   0.347   0.347   0.347   0.347   0.347   0.347   0.347   0.347   0.347   0.347   0.347   0.347   0.347   0.347   0.347   0.347   0.347   0.347   0.347   0.347   0.347   0.347   0.347   0.347   0.347   0.347   0.347   0.347   0.347   0.347   0.347   0.347   0.347   0.347   0.347   0.347
   242.19    0.347   0.347   0.347   0.347   0.347   0.347   0.347   0.347   0.347   0.347   0.347   0.347   0.347   0.347   0.347   0.347   0.347   0.347   0.347   0.347   0.347   0.347   0.347   0.347   0.347   0.347   0.347   0.347   0.347   0.347   0.347   0.347   0.347   0.347   0.347   0.347   0.347   0.347   0.347   0.347   0.347
   231.88    0.347   0.347   0.347   0.347   0.347   0.347   0.347   0.347   0.347   0.347   0.347   0.347   0.347   0.347   0.347   0.347   0.347   0.347   0.347   0.347   0.347   0.347   0.347   0.347   0.347   0.347   0.347   0.347   0.347   0.347   0.347   0.347   0.347   0.347   0.347   0.347   0.347   0.347   0.347   0.347   0.347
   221.56    0.347   0.347   0.347   0.347   0.347   0.347   0.347   0.347   0.347   0.347   0.347   0.347   0.347   0.347   0.347   0.347   0.347   0.347   0.347   0.347   0.347   0.347   0.347   0.347   0.347   0.347   0.347   0.347   0.347   0.347   0.347   0.347   0.347   0.347   0.347   0.347   0.347   0.347   0.347   0.347   0.347
   211.25    0.347   0.347   0.347   0.347   0.347   0.347   0.347   0.347   0.347   0.347   0.347   0.347   0.347   0.347   0.347   0.347   0.347   0.347   0.347   0.347   0.347   0.347   0.347   0.347   0.347   0.347   0.347   0.347   0.347   0.347   0.347   0.347   0.347   0.347   0.347   0.347   0.347   0.347   0.347   0.347   0.347
   200.94    0.347   0.347   0.347   0.347   0.347   0.347   0.347   0.347   0.347   0.347   0.347   0.347   0.347   0.347   0.347   0.347   0.347   0.347   0.347   0.347   0.347   0.347   0.347   0.347   0.347   0.347   0.347   0.347   0.347   0.347   0.347   0.347   0.347   0.347   0.347   0.347   0.347   0.347   0.347   0.347   0.347
   190.62    0.347   0.347   0.347   0.347   0.347   0.347   0.347   0.347   0.347   0.347   0.347   0.347   0.347   0.347   0.347   0.347   0.347   0.347   0.347   0.347   0.347   0.347   0.347   0.347   0.347   0.347   0.347   0.347   0.347   0.347   0.347   0.347   0.347   0.347   0.347   0.347   0.347   0.347   0.347   0.347   0.347
   180.31    0.347   0.347   0.347   0.347   0.347   0.347   0.347   0.347   0.347   0.347   0.347   0.347   0.347   0.347   0.347   0.347   0.347   0.347   0.347   0.347   0.347   0.347   0.347   0.347   0.347   0.347   0.347   0.347   0.347   0.347   0.347   0.347   0.347   0.347   0.347   0.347   0.347   0.347   0.347   0.347   0.347
   170.00    0.347   0.347   0.347   0.347   0.347   0.347   0.347   0.347   0.347   0.347   0.347   0.347   0.347   0.347   0.347   0.347   0.347   0.347   0.347   0.347   0.347   0.347   0.347   0.347   0.347   0.347   0.347   0.347   0.347   0.347   0.347   0.347   0.347   0.347   0.347   0.347   0.347   0.347   0.347   0.347   0.347
   159.69    0.347   0.347   0.347   0.347   0.347   0.347   0.347   0.347   0.347   0.347   0.347   0.347   0.347   0.347   0.347   0.347   0.347   0.347   0.347   0.347   0.347   0.347   0.347   0.347   0.347   0.347   0.347   0.347   0.347   0.347   0.347   0.347   0.347   0.347   0.347   0.347   0.347   0.347   0.347   0.347   0.347
   149.38    0.347   0.347   0.347   0.347   0.347   0.347   0.347   0.347   0.347   0.347   0.347   0.347   0.347   0.347   0.347   0.347   0.347   0.347   0.347   0.347   0.347   0.347   0.347   0.347   0.347   0.347   0.347   0.347   0.347   0.347   0.347   0.347   0.347   0.347   0.347   0.347   0.347   0.347   0.347   0.347   0.347
   139.06    0.347   0.347   0.347   0.347   0.347   0.347   0.347   0.347   0.347   0.347   0.347   0.347   0.347   0.347   0.347   0.347   0.347   0.347   0.347   0.347   0.347   0.347   0.347   0.347   0.347   0.347   0.347   0.347   0.347   0.347   0.347   0.347   0.347   0.347   0.347   0.347   0.347   0.347   0.347   0.347   0.347
   128.75    0.347   0.347   0.347   0.347   0.347   0.347   0.347   0.347   0.347   0.347   0.347   0.347   0.347   0.347   0.347   0.347   0.347   0.347   0.347   0.347   0.347   0.347   0.347   0.347   0.347   0.347   0.347   0.347   0.347   0.347   0.347   0.347   0.347   0.347   0.347   0.347   0.347   0.347   0.347   0.347   0.347
   118.44    0.347   0.347   0.347   0.347   0.347   0.347   0.347   0.347   0.347   0.347   0.347   0.347   0.347   0.347   0.347   0.347   0.347   0.347   0.347   0.347   0.347   0.347   0.347   0.347   0.347   0.347   0.347   0.347   0.347   0.347   0.347   0.347   0.347   0.347   0.347   0.347   0.347   0.347   0.347   0.347   0.347
   108.12    0.347   0.347   0.347   0.347   0.347   0.347   0.347   0.347   0.347   0.347   0.347   0.347   0.347   0.347   0.347   0.347   0.347   0.347   0.347   0.347   0.347   0.347   0.347   0.347   0.347   0.347   0.347   0.347   0.347   0.347   0.347   0.347   0.347   0.347   0.347   0.347   0.347   0.347   0.347   0.347   0.347
    97.81    0.347   0.347   0.347   0.347   0.347   0.347   0.347   0.347   0.347   0.347   0.347   0.347   0.347   0.347   0.347   0.347   0.347   0.347   0.347   0.347   0.347   0.347   0.347   0.347   0.347   0.347   0.347   0.347   0.347   0.347   0.347   0.347   0.347   0.347   0.347   0.347   0.347   0.347   0.347   0.347   0.347
    87.50    0.347   0.347   0.347   0.347   0.347   0.347   0.347   0.347   0.347   0.347   0.347   0.347   0.347   0.347   0.347   0.347   0.347   0.347   0.347   0.347   0.347   0.347   0.347   0.347   0.347   0.347   0.347   0.347   0.347   0.347   0.347   0.347   0.347   0.347   0.347   0.347   0.347   0.347   0.347   0.347   0.347
    77.19    0.347   0.347   0.347   0.347   0.347   0.347   0.347   0.347   0.347   0.347   0.347   0.347   0.347   0.347   0.347   0.347   0.347   0.347   0.347   0.347   0.347   0.347   0.347   0.347   0.347   0.347   0.347   0.347   0.347   0.347   0.347   0.347   0.347   0.347   0.347   0.347   0.347   0.347   0.347   0.347   0.347
    66.88    0.347   0.347   0.347   0.347   0.347   0.347   0.347   0.347   0.347   0.347   0.347   0.347   0.347   0.347   0.347   0.347   0.347   0.347   0.347   0.347   0.347   0.347   0.347   0.347   0.347   0.347   0.347   0.347   0.347   0.347   0.347   0.347   0.347   0.347   0.347   0.347   0.347   0.347   0.347   0.347   0.347
    56.56    0.347   0.347   0.347   0.347   0.347   0.347   0.347   0.347   0.347   0.347   0.347   0.347   0.347   0.347   0.347   0.347   0.347   0.347   0.347   0.347   0.347   0.347   0.347   0.347   0.347   0.347   0.347   0.347   0.347   0.347   0.347   0.347   0.347   0.347   0.347   0.347   0.347   0.347   0.347   0.347   0.347
    46.25    0.347   0.347   0.347   0.347   0.347   0.347   0.347   0.347   0.347   0.347   0.347   0.347   0.347   0.347   0.347   0.347   0.347   0.347   0.347   0.347   0.347   0.347   0.347   0.347   0.347   0.347   0.347   0.347   0.347   0.347   0.347   0.347   0.347   0.347   0.347   0.347   0.347   0.347   0.347   0.347   0.347
    35.94    0.347   0.347   0.347   0.347   0.347   0.347   0.347   0.347   0.347   0.347   0.347   0.347   0.347   0.347   0.347   0.347   0.347   0.347   0.347   0.347   0.347   0.347   0.347   0.347   0.347   0.347   0.347   0.347   0.347   0.347   0.347   0.347   0.347   0.347   0.347   0.347   0.347   0.347   0.347   0.347   0.347
    25.62    0.347   0.347   0.347   0.347   0.347   0.347   0.347   0.347   0.347   0.347   0.347   0.347   0.347   0.347   0.347   0.347   0.347   0.347   0.347   0.347   0.347   0.347   0.347   0.347   0.347   0.347   0.347   0.347   0.347   0.347   0.347   0.347   0.347   0.347   0.347   0.347   0.347   0.347   0.347   0.347   0.347
    15.31    0.347   0.347   0.347   0.347   0.347   0.347   0.347   0.347   0.347   0.347   0.347   0.347   0.347   0.347   0.347   0.347   0.347   0.347   0.347   0.347   0.347   0.347   0.347   0.347   0.347   0.347   0.347   0.347   0.347   0.347   0.347   0.347   0.347   0.347   0.347   0.347   0.347   0.347   0.347   0.347   0.347
     5.00    0.347   0.347   0.347   0.347   0.347   0.347   0.347   0.347   0.347   0.347   0.347   0.347   0.347   0.347   0.347   0.347   0.347   0.347   0.347   0.347   0.347   0.347   0.347   0.347   0.347   0.347   0.347   0.347   0.347   0.347   0.347   0.347   0.347   0.347   0.347   0.347   0.347   0.347   0.347   0.347   0.347

   Height   Standard deviation at grid points for the w component:
   335.00    0.210   0.210   0.210   0.210   0.210   0.210   0.210   0.210   0.210   0.210   0.210   0.210   0.210   0.210   0.210   0.210   0.210   0.210   0.210   0.210   0.210   0.210   0.210   0.210   0.210   0.210   0.210   0.210   0.210   0.210   0.210   0.210   0.210   0.210   0.210   0.210   0.210   0.210   0.210   0.210   0.210
   324.69    0.210   0.210   0.210   0.210   0.210   0.210   0.210   0.210   0.210   0.210   0.210   0.210   0.210   0.210   0.210   0.210   0.210   0.210   0.210   0.210   0.210   0.210   0.210   0.210   0.210   0.210   0.210   0.210   0.210   0.210   0.210   0.210   0.210   0.210   0.210   0.210   0.210   0.210   0.210   0.210   0.210
   314.38    0.210   0.210   0.210   0.210   0.210   0.210   0.210   0.210   0.210   0.210   0.210   0.210   0.210   0.210   0.210   0.210   0.210   0.210   0.210   0.210   0.210   0.210   0.210   0.210   0.210   0.210   0.210   0.210   0.210   0.210   0.210   0.210   0.210   0.210   0.210   0.210   0.210   0.210   0.210   0.210   0.210
   304.06    0.210   0.210   0.210   0.210   0.210   0.210   0.210   0.210   0.210   0.210   0.210   0.210   0.210   0.210   0.210   0.210   0.210   0.210   0.210   0.210   0.210   0.210   0.210   0.210   0.210   0.210   0.210   0.210   0.210   0.210   0.210   0.210   0.210   0.210   0.210   0.210   0.210   0.210   0.210   0.210   0.210
   293.75    0.210   0.210   0.210   0.210   0.210   0.210   0.210   0.210   0.210   0.210   0.210   0.210   0.210   0.210   0.210   0.210   0.210   0.210   0.210   0.210   0.210   0.210   0.210   0.210   0.210   0.210   0.210   0.210   0.210   0.210   0.210   0.210   0.210   0.210   0.210   0.210   0.210   0.210   0.210   0.210   0.210
   283.44    0.210   0.210   0.210   0.210   0.210   0.210   0.210   0.210   0.210   0.210   0.210   0.210   0.210   0.210   0.210   0.210   0.210   0.210   0.210   0.210   0.210   0.210   0.210   0.210   0.210   0.210   0.210   0.210   0.210   0.210   0.210   0.210   0.210   0.210   0.210   0.210   0.210   0.210   0.210   0.210   0.210
   273.12    0.210   0.210   0.210   0.210   0.210   0.210   0.210   0.210   0.210   0.210   0.210   0.210   0.210   0.210   0.210   0.210   0.210   0.210   0.210   0.210   0.210   0.210   0.210   0.210   0.210   0.210   0.210   0.210   0.210   0.210   0.210   0.210   0.210   0.210   0.210   0.210   0.210   0.210   0.210   0.210   0.210
   262.81    0.210   0.210   0.210   0.210   0.210   0.210   0.210   0.210   0.210   0.210   0.210   0.210   0.210   0.210   0.210   0.210   0.210   0.210   0.210   0.210   0.210   0.210   0.210   0.210   0.210   0.210   0.210   0.210   0.210   0.210   0.210   0.210   0.210   0.210   0.210   0.210   0.210   0.210   0.210   0.210   0.210
   252.50    0.210   0.210   0.210   0.210   0.210   0.210   0.210   0.210   0.210   0.210   0.210   0.210   0.210   0.210   0.210   0.210   0.210   0.210   0.210   0.210   0.210   0.210   0.210   0.210   0.210   0.210   0.210   0.210   0.210   0.210   0.210   0.210   0.210   0.210   0.210   0.210   0.210   0.210   0.210   0.210   0.210
   242.19    0.210   0.210   0.210   0.210   0.210   0.210   0.210   0.210   0.210   0.210   0.210   0.210   0.210   0.210   0.210   0.210   0.210   0.210   0.210   0.210   0.210   0.210   0.210   0.210   0.210   0.210   0.210   0.210   0.210   0.210   0.210   0.210   0.210   0.210   0.210   0.210   0.210   0.210   0.210   0.210   0.210
   231.88    0.210   0.210   0.210   0.210   0.210   0.210   0.210   0.210   0.210   0.210   0.210   0.210   0.210   0.210   0.210   0.210   0.210   0.210   0.210   0.210   0.210   0.210   0.210   0.210   0.210   0.210   0.210   0.210   0.210   0.210   0.210   0.210   0.210   0.210   0.210   0.210   0.210   0.210   0.210   0.210   0.210
   221.56    0.210   0.210   0.210   0.210   0.210   0.210   0.210   0.210   0.210   0.210   0.210   0.210   0.210   0.210   0.210   0.210   0.210   0.210   0.210   0.210   0.210   0.210   0.210   0.210   0.210   0.210   0.210   0.210   0.210   0.210   0.210   0.210   0.210   0.210   0.210   0.210   0.210   0.210   0.210   0.210   0.210
   211.25    0.210   0.210   0.210   0.210   0.210   0.210   0.210   0.210   0.210   0.210   0.210   0.210   0.210   0.210   0.210   0.210   0.210   0.210   0.210   0.210   0.210   0.210   0.210   0.210   0.210   0.210   0.210   0.210   0.210   0.210   0.210   0.210   0.210   0.210   0.210   0.210   0.210   0.210   0.210   0.210   0.210
   200.94    0.210   0.210   0.210   0.210   0.210   0.210   0.210   0.210   0.210   0.210   0.210   0.210   0.210   0.210   0.210   0.210   0.210   0.210   0.210   0.210   0.210   0.210   0.210   0.210   0.210   0.210   0.210   0.210   0.210   0.210   0.210   0.210   0.210   0.210   0.210   0.210   0.210   0.210   0.210   0.210   0.210
   190.62    0.210   0.210   0.210   0.210   0.210   0.210   0.210   0.210   0.210   0.210   0.210   0.210   0.210   0.210   0.210   0.210   0.210   0.210   0.210   0.210   0.210   0.210   0.210   0.210   0.210   0.210   0.210   0.210   0.210   0.210   0.210   0.210   0.210   0.210   0.210   0.210   0.210   0.210   0.210   0.210   0.210
   180.31    0.210   0.210   0.210   0.210   0.210   0.210   0.210   0.210   0.210   0.210   0.210   0.210   0.210   0.210   0.210   0.210   0.210   0.210   0.210   0.210   0.210   0.210   0.210   0.210   0.210   0.210   0.210   0.210   0.210   0.210   0.210   0.210   0.210   0.210   0.210   0.210   0.210   0.210   0.210   0.210   0.210
   170.00    0.210   0.210   0.210   0.210   0.210   0.210   0.210   0.210   0.210   0.210   0.210   0.210   0.210   0.210   0.210   0.210   0.210   0.210   0.210   0.210   0.210   0.210   0.210   0.210   0.210   0.210   0.210   0.210   0.210   0.210   0.210   0.210   0.210   0.210   0.210   0.210   0.210   0.210   0.210   0.210   0.210
   159.69    0.210   0.210   0.210   0.210   0.210   0.210   0.210   0.210   0.210   0.210   0.210   0.210   0.210   0.210   0.210   0.210   0.210   0.210   0.210   0.210   0.210   0.210   0.210   0.210   0.210   0.210   0.210   0.210   0.210   0.210   0.210   0.210   0.210   0.210   0.210   0.210   0.210   0.210   0.210   0.210   0.210
   149.38    0.210   0.210   0.210   0.210   0.210   0.210   0.210   0.210   0.210   0.210   0.210   0.210   0.210   0.210   0.210   0.210   0.210   0.210   0.210   0.210   0.210   0.210   0.210   0.210   0.210   0.210   0.210   0.210   0.210   0.210   0.210   0.210   0.210   0.210   0.210   0.210   0.210   0.210   0.210   0.210   0.210
   139.06    0.210   0.210   0.210   0.210   0.210   0.210   0.210   0.210   0.210   0.210   0.210   0.210   0.210   0.210   0.210   0.210   0.210   0.210   0.210   0.210   0.210   0.210   0.210   0.210   0.210   0.210   0.210   0.210   0.210   0.210   0.210   0.210   0.210   0.210   0.210   0.210   0.210   0.210   0.210   0.210   0.210
   128.75    0.210   0.210   0.210   0.210   0.210   0.210   0.210   0.210   0.210   0.210   0.210   0.210   0.210   0.210   0.210   0.210   0.210   0.210   0.210   0.210   0.210   0.210   0.210   0.210   0.210   0.210   0.210   0.210   0.210   0.210   0.210   0.210   0.210   0.210   0.210   0.210   0.210   0.210   0.210   0.210   0.210
   118.44    0.210   0.210   0.210   0.210   0.210   0.210   0.210   0.210   0.210   0.210   0.210   0.210   0.210   0.210   0.210   0.210   0.210   0.210   0.210   0.210   0.210   0.210   0.210   0.210   0.210   0.210   0.210   0.210   0.210   0.210   0.210   0.210   0.210   0.210   0.210   0.210   0.210   0.210   0.210   0.210   0.210
   108.12    0.210   0.210   0.210   0.210   0.210   0.210   0.210   0.210   0.210   0.210   0.210   0.210   0.210   0.210   0.210   0.210   0.210   0.210   0.210   0.210   0.210   0.210   0.210   0.210   0.210   0.210   0.210   0.210   0.210   0.210   0.210   0.210   0.210   0.210   0.210   0.210   0.210   0.210   0.210   0.210   0.210
    97.81    0.210   0.210   0.210   0.210   0.210   0.210   0.210   0.210   0.210   0.210   0.210   0.210   0.210   0.210   0.210   0.210   0.210   0.210   0.210   0.210   0.210   0.210   0.210   0.210   0.210   0.210   0.210   0.210   0.210   0.210   0.210   0.210   0.210   0.210   0.210   0.210   0.210   0.210   0.210   0.210   0.210
    87.50    0.210   0.210   0.210   0.210   0.210   0.210   0.210   0.210   0.210   0.210   0.210   0.210   0.210   0.210   0.210   0.210   0.210   0.210   0.210   0.210   0.210   0.210   0.210   0.210   0.210   0.210   0.210   0.210   0.210   0.210   0.210   0.210   0.210   0.210   0.210   0.210   0.210   0.210   0.210   0.210   0.210
    77.19    0.210   0.210   0.210   0.210   0.210   0.210   0.210   0.210   0.210   0.210   0.210   0.210   0.210   0.210   0.210   0.210   0.210   0.210   0.210   0.210   0.210   0.210   0.210   0.210   0.210   0.210   0.210   0.210   0.210   0.210   0.210   0.210   0.210   0.210   0.210   0.210   0.210   0.210   0.210   0.210   0.210
    66.88    0.210   0.210   0.210   0.210   0.210   0.210   0.210   0.210   0.210   0.210   0.210   0.210   0.210   0.210   0.210   0.210   0.210   0.210   0.210   0.210   0.210   0.210   0.210   0.210   0.210   0.210   0.210   0.210   0.210   0.210   0.210   0.210   0.210   0.210   0.210   0.210   0.210   0.210   0.210   0.210   0.210
    56.56    0.210   0.210   0.210   0.210   0.210   0.210   0.210   0.210   0.210   0.210   0.210   0.210   0.210   0.210   0.210   0.210   0.210   0.210   0.210   0.210   0.210   0.210   0.210   0.210   0.210   0.210   0.210   0.210   0.210   0.210   0.210   0.210   0.210   0.210   0.210   0.210   0.210   0.210   0.210   0.210   0.210
    46.25    0.210   0.210   0.210   0.210   0.210   0.210   0.210   0.210   0.210   0.210   0.210   0.210   0.210   0.210   0.210   0.210   0.210   0.210   0.210   0.210   0.210   0.210   0.210   0.210   0.210   0.210   0.210   0.210   0.210   0.210   0.210   0.210   0.210   0.210   0.210   0.210   0.210   0.210   0.210   0.210   0.210
    35.94    0.210   0.210   0.210   0.210   0.210   0.210   0.210   0.210   0.210   0.210   0.210   0.210   0.210   0.210   0.210   0.210   0.210   0.210   0.210   0.210   0.210   0.210   0.210   0.210   0.210   0.210   0.210   0.210   0.210   0.210   0.210   0.210   0.210   0.210   0.210   0.210   0.210   0.210   0.210   0.210   0.210
    25.62    0.210   0.210   0.210   0.210   0.210   0.210   0.210   0.210   0.210   0.210   0.210   0.210   0.210   0.210   0.210   0.210   0.210   0.210   0.210   0.210   0.210   0.210   0.210   0.210   0.210   0.210   0.210   0.210   0.210   0.210   0.210   0.210   0.210   0.210   0.210   0.210   0.210   0.210   0.210   0.210   0.210
    15.31    0.210   0.210   0.210   0.210   0.210   0.210   0.210   0.210   0.210   0.210   0.210   0.210   0.210   0.210   0.210   0.210   0.210   0.210   0.210   0.210   0.210   0.210   0.210   0.210   0.210   0.210   0.210   0.210   0.210   0.210   0.210   0.210   0.210   0.210   0.210   0.210   0.210   0.210   0.210   0.210   0.210
     5.00    0.210   0.210   0.210   0.210   0.210   0.210   0.210   0.210   0.210   0.210   0.210   0.210   0.210   0.210   0.210   0.210   0.210   0.210   0.210   0.210   0.210   0.210   0.210   0.210   0.210   0.210   0.210   0.210   0.210   0.210   0.210   0.210   0.210   0.210   0.210   0.210   0.210   0.210   0.210   0.210   0.210

   Mean standard deviation across all grid points:
      u component:    0.430 m/s
      v component:    0.347 m/s
      w component:    0.210 m/s


U-component (X) statistics from the interpolated hub point:

   Mean =   9.1000 m/s
   TI   =   4.9879 %


Processing complete.  2.6719 CPU seconds used.
