
This summary file was generated by TurbSim (from OpenFAST-v3.5.3) on 06-Dec-2024 at 15:07:06.


Runtime Options:

   4683464  Random seed #1
    RANLUX  Type of random number generator
         F  Output binary HH turbulence parameters?
         T  Output formatted turbulence parameters?
         F  Output AeroDyn HH files?
         T  Output AeroDyn FF files?
         F  Output BLADED FF files?
         F  Output tower data?
         F  Output HAWC FF files?
         F  Output formatted FF files?
         T  Output coherent turbulence time step file?
 0 -  NONE  IEC turbulence models scaled to exact specified standard deviation


Turbine/Model Specifications:

        33  Vertical grid-point matrix dimension
        41  Horizontal grid-point matrix dimension
     0.500  Time step [seconds]
   660.000  Analysis time [seconds]
   660.000  Usable output time [seconds]
   170.000  Hub height [m]
   330.000  Grid height [m]
   405.000  Grid width [m]
     0.000  Vertical flow angle [degrees]
     0.000  Horizontal flow angle [degrees]


Meteorological Boundary Conditions:

    IECKAI  IEC Kaimal spectral model
         1  IEC standard: IEC 61400-1 Ed. 3: 2005
     5.000  Percent turbulence intensity, IEC 61400-1 Ed. 3: 2005
       NTM  IEC Normal Turbulence Model
       N/A  IEC Extreme Turbulence Model (ETM) "c" parameter [m/s]
       PL   Wind profile type
   170.000  Reference height [m]
    10.000  Reference wind speed [m/s]
       N/A  Jet height [m]
     0.000  Power law exponent
     0.030  Surface roughness length [m]


Non-IEC Meteorological Boundary Conditions:

       N/A  Site latitude [degrees]
       N/A  Gradient Richardson number
       N/A  Friction or shear velocity [m/s]
       N/A  Mixing layer depth [m]
       N/A  Mean hub u'w' Reynolds stress
       N/A  Mean hub u'v' Reynolds stress
       N/A  Mean hub v'w' Reynolds stress


Spatial Coherence Models:

       IEC  u-component coherence model
      NONE  v-component coherence model
      NONE  w-component coherence model
(   12.000, 0.353E-03)  u-component coherence parameters
                   N/A  v-component coherence parameters
                   N/A  w-component coherence parameters
       N/A  Coherence exponent


You have requested that the following file(s) be generated:

   1_Configuration/Inflow_files/TurbSim_input_temp.dat (formatted turbulence-parameter file)
   1_Configuration/Inflow_files/TurbSim_input_temp.bts (AeroDyn/TurbSim full-field wind file)


Turbulence Simulation Scaling Parameter Summary:

   Turbulence model used                            =  IEC Kaimal
   Turbulence characteristic                        =  User-specified
   IEC standard                                     =  IEC 61400-1 Ed. 3: 2005
   Mean wind speed at hub height                    =   10.000 m/s
   Characteristic value of standard deviation       =    0.500 m/s
   Turbulence scale                                 =   42.000 m
   u-component integral scale                       =  340.200 m
   Coherency scale                                  =  340.200 m
   Characteristic value of hub turbulence intensity =    5.000%
   Gradient Richardson number                       =    0.000

   Wind profile type                                =  Power law
   Power law exponent                               =    0.000
   Mean shear across rotor disk                     =    0.000 (m/s)/m
   Assumed rotor diameter                           =  330.000 m
   Surface roughness length                         =    0.030 m

   Nyquist frequency of turbulent wind field        =    1.000 Hz

   Number of time steps in the FFT                  =     1320
   Number of time steps output                      =     1320
   Number of points simulated                       =     1353


Mean Flow Angles:

   Vertical   =   0.0 degrees
   Horizontal =   0.0 degrees

Mean Wind Speed Profile:

   Height    Wind Speed   Horizontal Angle  Vertical Angle  U-comp (X)   V-comp (Y)   W-comp (Z)
     (m)        (m/s)         (degrees)       (degrees)       (m/s)        (m/s)        (m/s)   
   ------    ----------   ----------------  --------------  ----------   ----------   ----------
    335.0       10.00            0.00            0.00         10.00         0.00         0.00
    324.7       10.00            0.00            0.00         10.00         0.00         0.00
    314.4       10.00            0.00            0.00         10.00         0.00         0.00
    304.1       10.00            0.00            0.00         10.00         0.00         0.00
    293.8       10.00            0.00            0.00         10.00         0.00         0.00
    283.4       10.00            0.00            0.00         10.00         0.00         0.00
    273.1       10.00            0.00            0.00         10.00         0.00         0.00
    262.8       10.00            0.00            0.00         10.00         0.00         0.00
    252.5       10.00            0.00            0.00         10.00         0.00         0.00
    242.2       10.00            0.00            0.00         10.00         0.00         0.00
    231.9       10.00            0.00            0.00         10.00         0.00         0.00
    221.6       10.00            0.00            0.00         10.00         0.00         0.00
    211.2       10.00            0.00            0.00         10.00         0.00         0.00
    200.9       10.00            0.00            0.00         10.00         0.00         0.00
    190.6       10.00            0.00            0.00         10.00         0.00         0.00
    180.3       10.00            0.00            0.00         10.00         0.00         0.00
    170.0       10.00            0.00            0.00         10.00         0.00         0.00
    159.7       10.00            0.00            0.00         10.00         0.00         0.00
    149.4       10.00            0.00            0.00         10.00         0.00         0.00
    139.1       10.00            0.00            0.00         10.00         0.00         0.00
    128.8       10.00            0.00            0.00         10.00         0.00         0.00
    118.4       10.00            0.00            0.00         10.00         0.00         0.00
    108.1       10.00            0.00            0.00         10.00         0.00         0.00
     97.8       10.00            0.00            0.00         10.00         0.00         0.00
     87.5       10.00            0.00            0.00         10.00         0.00         0.00
     77.2       10.00            0.00            0.00         10.00         0.00         0.00
     66.9       10.00            0.00            0.00         10.00         0.00         0.00
     56.6       10.00            0.00            0.00         10.00         0.00         0.00
     46.2       10.00            0.00            0.00         10.00         0.00         0.00
     35.9       10.00            0.00            0.00         10.00         0.00         0.00
     25.6       10.00            0.00            0.00         10.00         0.00         0.00
     15.3       10.00            0.00            0.00         10.00         0.00         0.00
      5.0       10.00            0.00            0.00         10.00         0.00         0.00


Harvested Random Seeds after Generation of the Random Numbers:

     24891718 K 1
            0 K 2


Hub-Height Simulated Turbulence Statistical Summary:

   Type of Wind        Min (m/s)   Mean (m/s)    Max (m/s)  Sigma (m/s)       TI (%)
   ----------------    ---------   ----------    ---------  -----------       ------
   Longitudinal (u)         8.71        10.00        11.52        0.495        4.950
   Lateral (v)             -1.07        -0.00         1.16        0.381        3.810
   Vertical (w)            -0.84         0.00         0.88        0.230        2.297
   U component              8.71        10.00        11.52        0.495        4.950
   V component             -1.07        -0.00         1.16        0.381        3.810
   W component             -0.84         0.00         0.88        0.230        2.297
   Horizontal (U&V)         8.75        10.01        11.53        0.496        4.959
   Total                    8.76        10.01        11.53        0.496        4.959

                       Min Reynolds     Mean Reynolds    Max Reynolds    Correlation
   Product             Stress (m/s)^2   Stress (m/s)^2   Stress (m/s)^2  Coefficient
   ----------------    --------------   --------------   --------------  -----------
   u'w'                     -0.521             0.012             0.572         0.106
   u'v'                     -1.163             0.031             1.157         0.166
   v'w'                     -0.520             0.003             0.563         0.036


   Friction Velocity (Ustar)  =      0.110 m/s
   Maximum Instantaneous TKE  =      1.352 (m/s)^2
   Maximum Instantaneous CTKE =      0.620 (m/s)^2


Grid Point Variance Summary:

   Y-coord -202.50 -192.38 -182.25 -172.12 -162.00 -151.88 -141.75 -131.62 -121.50 -111.38 -101.25  -91.12  -81.00  -70.88  -60.75  -50.62  -40.50  -30.38  -20.25  -10.12    0.00   10.12   20.25   30.38   40.50   50.62   60.75   70.88   81.00   91.12  101.25  111.38  121.50  131.62  141.75  151.88  162.00  172.12  182.25  192.38  202.50

   Height   Standard deviation at grid points for the u component:
   335.00    0.475   0.435   0.397   0.409   0.401   0.435   0.415   0.438   0.434   0.461   0.483   0.407   0.400   0.393   0.385   0.396   0.418   0.414   0.450   0.485   0.488   0.497   0.522   0.561   0.617   0.656   0.632   0.682   0.680   0.683   0.681   0.671   0.590   0.590   0.599   0.530   0.503   0.506   0.478   0.450   0.478
   324.69    0.474   0.469   0.392   0.364   0.398   0.408   0.382   0.426   0.417   0.472   0.495   0.466   0.453   0.420   0.389   0.384   0.437   0.435   0.432   0.442   0.470   0.512   0.517   0.592   0.569   0.620   0.643   0.664   0.657   0.670   0.671   0.661   0.598   0.586   0.557   0.508   0.509   0.512   0.486   0.464   0.504
   314.38    0.483   0.444   0.397   0.399   0.428   0.439   0.462   0.476   0.454   0.527   0.481   0.496   0.491   0.476   0.421   0.410   0.446   0.448   0.465   0.484   0.500   0.527   0.556   0.611   0.628   0.622   0.620   0.646   0.645   0.651   0.620   0.582   0.553   0.561   0.550   0.543   0.512   0.480   0.495   0.532   0.524
   304.06    0.427   0.425   0.427   0.393   0.438   0.442   0.483   0.456   0.474   0.498   0.473   0.511   0.475   0.473   0.408   0.477   0.477   0.476   0.497   0.474   0.523   0.531   0.517   0.563   0.591   0.615   0.598   0.593   0.581   0.572   0.545   0.516   0.494   0.510   0.476   0.540   0.535   0.483   0.540   0.581   0.575
   293.75    0.417   0.424   0.396   0.420   0.439   0.435   0.452   0.456   0.451   0.476   0.492   0.467   0.461   0.441   0.428   0.473   0.457   0.471   0.465   0.505   0.539   0.523   0.516   0.564   0.580   0.609   0.586   0.573   0.566   0.537   0.539   0.502   0.489   0.488   0.512   0.515   0.523   0.527   0.535   0.520   0.565
   283.44    0.416   0.443   0.394   0.443   0.464   0.454   0.461   0.480   0.499   0.470   0.488   0.477   0.467   0.459   0.454   0.480   0.502   0.482   0.489   0.497   0.525   0.493   0.550   0.561   0.516   0.545   0.543   0.578   0.548   0.564   0.550   0.557   0.523   0.454   0.467   0.466   0.513   0.559   0.569   0.544   0.516
   273.12    0.433   0.421   0.425   0.461   0.477   0.470   0.471   0.471   0.502   0.500   0.505   0.498   0.509   0.527   0.503   0.511   0.513   0.492   0.494   0.518   0.493   0.511   0.519   0.527   0.507   0.533   0.520   0.532   0.505   0.525   0.521   0.535   0.525   0.495   0.458   0.447   0.488   0.531   0.529   0.512   0.503
   262.81    0.448   0.429   0.399   0.420   0.462   0.502   0.502   0.519   0.519   0.479   0.503   0.513   0.553   0.560   0.513   0.512   0.502   0.499   0.465   0.497   0.482   0.504   0.546   0.525   0.477   0.489   0.478   0.507   0.446   0.477   0.490   0.501   0.479   0.480   0.460   0.426   0.452   0.492   0.520   0.473   0.442
   252.50    0.481   0.460   0.394   0.430   0.437   0.499   0.506   0.488   0.506   0.478   0.457   0.517   0.514   0.537   0.527   0.554   0.526   0.521   0.504   0.486   0.451   0.493   0.535   0.493   0.505   0.522   0.501   0.488   0.475   0.477   0.454   0.460   0.476   0.469   0.487   0.440   0.482   0.449   0.492   0.488   0.476
   242.19    0.463   0.435   0.415   0.429   0.476   0.519   0.539   0.546   0.502   0.511   0.547   0.536   0.548   0.501   0.540   0.571   0.553   0.543   0.531   0.506   0.491   0.483   0.484   0.487   0.473   0.471   0.460   0.477   0.459   0.443   0.440   0.447   0.445   0.492   0.497   0.487   0.475   0.481   0.452   0.445   0.424
   231.88    0.472   0.450   0.415   0.423   0.445   0.495   0.528   0.515   0.539   0.567   0.546   0.561   0.540   0.540   0.564   0.571   0.541   0.540   0.514   0.515   0.493   0.482   0.446   0.454   0.459   0.448   0.423   0.461   0.447   0.471   0.473   0.472   0.481   0.529   0.521   0.481   0.469   0.477   0.443   0.421   0.437
   221.56    0.478   0.443   0.438   0.424   0.492   0.492   0.516   0.531   0.555   0.562   0.535   0.502   0.535   0.581   0.592   0.573   0.496   0.536   0.518   0.475   0.473   0.472   0.454   0.437   0.464   0.449   0.448   0.456   0.468   0.467   0.482   0.493   0.540   0.497   0.510   0.461   0.460   0.446   0.437   0.453   0.450
   211.25    0.463   0.467   0.464   0.489   0.481   0.509   0.537   0.545   0.555   0.532   0.534   0.539   0.556   0.596   0.600   0.582   0.538   0.518   0.548   0.498   0.481   0.497   0.451   0.454   0.456   0.449   0.424   0.425   0.446   0.464   0.423   0.461   0.480   0.478   0.491   0.468   0.442   0.451   0.436   0.436   0.423
   200.94    0.456   0.466   0.501   0.503   0.480   0.509   0.585   0.552   0.575   0.548   0.546   0.553   0.533   0.535   0.524   0.556   0.537   0.541   0.536   0.491   0.473   0.483   0.513   0.478   0.438   0.432   0.419   0.406   0.403   0.410   0.413   0.437   0.438   0.424   0.437   0.438   0.463   0.436   0.463   0.450   0.426
   190.62    0.437   0.496   0.536   0.542   0.517   0.534   0.576   0.571   0.539   0.562   0.559   0.497   0.530   0.526   0.511   0.531   0.547   0.512   0.520   0.523   0.478   0.467   0.478   0.473   0.413   0.412   0.419   0.398   0.424   0.435   0.463   0.416   0.400   0.407   0.409   0.402   0.414   0.431   0.426   0.420   0.428
   180.31    0.458   0.469   0.501   0.511   0.538   0.532   0.542   0.529   0.561   0.551   0.493   0.519   0.527   0.549   0.490   0.504   0.503   0.498   0.520   0.492   0.505   0.501   0.464   0.474   0.418   0.376   0.444   0.440   0.425   0.456   0.486   0.449   0.434   0.415   0.435   0.415   0.390   0.403   0.383   0.412   0.412
   170.00    0.469   0.496   0.498   0.474   0.489   0.500   0.480   0.506   0.484   0.532   0.499   0.512   0.531   0.575   0.555   0.512   0.476   0.456   0.494   0.507   0.495   0.441   0.464   0.446   0.438   0.423   0.419   0.435   0.436   0.460   0.447   0.425   0.405   0.425   0.402   0.384   0.362   0.396   0.367   0.367   0.436
   159.69    0.499   0.514   0.436   0.468   0.489   0.465   0.464   0.469   0.503   0.501   0.522   0.521   0.499   0.553   0.525   0.515   0.520   0.486   0.501   0.555   0.495   0.455   0.466   0.419   0.466   0.443   0.426   0.448   0.457   0.467   0.445   0.394   0.386   0.395   0.395   0.382   0.385   0.399   0.396   0.415   0.437
   149.38    0.473   0.459   0.491   0.467   0.456   0.463   0.452   0.416   0.462   0.477   0.482   0.487   0.533   0.548   0.542   0.477   0.462   0.453   0.540   0.519   0.516   0.472   0.450   0.405   0.408   0.426   0.446   0.457   0.445   0.430   0.418   0.414   0.371   0.375   0.384   0.363   0.377   0.397   0.416   0.445   0.484
   139.06    0.461   0.469   0.535   0.488   0.474   0.449   0.419   0.432   0.433   0.448   0.486   0.471   0.506   0.532   0.520   0.508   0.512   0.487   0.500   0.547   0.486   0.504   0.470   0.438   0.453   0.436   0.472   0.453   0.449   0.426   0.418   0.434   0.386   0.369   0.397   0.346   0.392   0.421   0.413   0.457   0.444
   128.75    0.479   0.480   0.502   0.479   0.491   0.454   0.444   0.419   0.409   0.469   0.486   0.533   0.540   0.527   0.517   0.512   0.476   0.478   0.462   0.487   0.471   0.496   0.472   0.459   0.445   0.470   0.468   0.472   0.466   0.440   0.429   0.405   0.411   0.379   0.365   0.419   0.408   0.448   0.471   0.458   0.506
   118.44    0.494   0.492   0.485   0.471   0.431   0.411   0.415   0.398   0.417   0.446   0.503   0.550   0.589   0.549   0.526   0.475   0.503   0.464   0.472   0.451   0.433   0.450   0.477   0.481   0.455   0.455   0.460   0.421   0.406   0.422   0.405   0.415   0.419   0.387   0.428   0.411   0.423   0.446   0.493   0.513   0.488
   108.12    0.435   0.463   0.474   0.458   0.463   0.455   0.414   0.415   0.407   0.506   0.556   0.587   0.556   0.589   0.566   0.488   0.486   0.428   0.435   0.441   0.451   0.443   0.489   0.495   0.447   0.467   0.439   0.423   0.410   0.375   0.381   0.401   0.420   0.388   0.397   0.405   0.456   0.479   0.480   0.480   0.511
    97.81    0.427   0.452   0.446   0.471   0.466   0.455   0.471   0.414   0.434   0.467   0.523   0.573   0.566   0.589   0.569   0.512   0.451   0.459   0.417   0.429   0.402   0.441   0.468   0.474   0.490   0.442   0.464   0.407   0.386   0.379   0.400   0.419   0.390   0.372   0.391   0.435   0.438   0.472   0.469   0.439   0.445
    87.50    0.404   0.417   0.430   0.400   0.466   0.460   0.449   0.433   0.450   0.460   0.482   0.524   0.520   0.516   0.526   0.525   0.473   0.452   0.439   0.420   0.446   0.480   0.487   0.471   0.471   0.470   0.434   0.401   0.404   0.399   0.394   0.424   0.401   0.418   0.415   0.449   0.480   0.458   0.478   0.424   0.445
    77.19    0.382   0.444   0.471   0.444   0.480   0.459   0.469   0.463   0.442   0.506   0.476   0.521   0.575   0.540   0.497   0.507   0.446   0.420   0.415   0.457   0.452   0.456   0.493   0.447   0.455   0.451   0.459   0.436   0.482   0.463   0.413   0.451   0.451   0.433   0.467   0.488   0.514   0.509   0.448   0.444   0.455
    66.88    0.476   0.444   0.457   0.467   0.451   0.457   0.443   0.455   0.458   0.440   0.466   0.488   0.517   0.527   0.487   0.472   0.464   0.428   0.453   0.425   0.452   0.435   0.485   0.465   0.451   0.468   0.449   0.479   0.492   0.443   0.414   0.456   0.452   0.463   0.502   0.496   0.490   0.495   0.462   0.426   0.445
    56.56    0.486   0.467   0.434   0.474   0.452   0.446   0.446   0.446   0.475   0.437   0.446   0.445   0.421   0.459   0.461   0.436   0.383   0.394   0.424   0.430   0.462   0.508   0.488   0.472   0.476   0.461   0.464   0.461   0.450   0.423   0.457   0.425   0.450   0.439   0.467   0.481   0.439   0.480   0.494   0.460   0.490
    46.25    0.468   0.471   0.475   0.472   0.453   0.460   0.464   0.421   0.421   0.446   0.420   0.441   0.435   0.408   0.438   0.426   0.398   0.388   0.429   0.423   0.468   0.502   0.506   0.488   0.512   0.491   0.431   0.460   0.438   0.441   0.440   0.444   0.467   0.465   0.464   0.481   0.451   0.475   0.477   0.464   0.508
    35.94    0.491   0.454   0.451   0.449   0.479   0.390   0.429   0.445   0.406   0.411   0.459   0.481   0.455   0.456   0.454   0.456   0.434   0.392   0.426   0.413   0.470   0.465   0.483   0.518   0.515   0.515   0.465   0.464   0.458   0.422   0.469   0.449   0.430   0.437   0.423   0.428   0.452   0.454   0.461   0.452   0.486
    25.62    0.464   0.414   0.432   0.465   0.466   0.476   0.434   0.452   0.415   0.399   0.454   0.474   0.436   0.430   0.460   0.434   0.427   0.393   0.400   0.440   0.497   0.500   0.504   0.508   0.552   0.493   0.468   0.416   0.386   0.442   0.416   0.438   0.455   0.423   0.450   0.444   0.447   0.446   0.460   0.463   0.480
    15.31    0.463   0.459   0.464   0.440   0.472   0.459   0.451   0.436   0.457   0.447   0.467   0.453   0.451   0.415   0.424   0.431   0.385   0.420   0.408   0.435   0.461   0.490   0.529   0.532   0.505   0.512   0.465   0.400   0.357   0.383   0.414   0.396   0.443   0.439   0.422   0.370   0.408   0.419   0.442   0.477   0.438
     5.00    0.468   0.475   0.470   0.485   0.471   0.451   0.475   0.481   0.450   0.451   0.475   0.446   0.424   0.424   0.414   0.431   0.404   0.410   0.436   0.420   0.484   0.516   0.514   0.519   0.525   0.554   0.479   0.403   0.408   0.380   0.394   0.389   0.402   0.428   0.410   0.387   0.434   0.435   0.437   0.451   0.464

   Height   Standard deviation at grid points for the v component:
   335.00    0.381   0.381   0.381   0.381   0.381   0.381   0.381   0.381   0.381   0.381   0.381   0.381   0.381   0.381   0.381   0.381   0.381   0.381   0.381   0.381   0.381   0.381   0.381   0.381   0.381   0.381   0.381   0.381   0.381   0.381   0.381   0.381   0.381   0.381   0.381   0.381   0.381   0.381   0.381   0.381   0.381
   324.69    0.381   0.381   0.381   0.381   0.381   0.381   0.381   0.381   0.381   0.381   0.381   0.381   0.381   0.381   0.381   0.381   0.381   0.381   0.381   0.381   0.381   0.381   0.381   0.381   0.381   0.381   0.381   0.381   0.381   0.381   0.381   0.381   0.381   0.381   0.381   0.381   0.381   0.381   0.381   0.381   0.381
   314.38    0.381   0.381   0.381   0.381   0.381   0.381   0.381   0.381   0.381   0.381   0.381   0.381   0.381   0.381   0.381   0.381   0.381   0.381   0.381   0.381   0.381   0.381   0.381   0.381   0.381   0.381   0.381   0.381   0.381   0.381   0.381   0.381   0.381   0.381   0.381   0.381   0.381   0.381   0.381   0.381   0.381
   304.06    0.381   0.381   0.381   0.381   0.381   0.381   0.381   0.381   0.381   0.381   0.381   0.381   0.381   0.381   0.381   0.381   0.381   0.381   0.381   0.381   0.381   0.381   0.381   0.381   0.381   0.381   0.381   0.381   0.381   0.381   0.381   0.381   0.381   0.381   0.381   0.381   0.381   0.381   0.381   0.381   0.381
   293.75    0.381   0.381   0.381   0.381   0.381   0.381   0.381   0.381   0.381   0.381   0.381   0.381   0.381   0.381   0.381   0.381   0.381   0.381   0.381   0.381   0.381   0.381   0.381   0.381   0.381   0.381   0.381   0.381   0.381   0.381   0.381   0.381   0.381   0.381   0.381   0.381   0.381   0.381   0.381   0.381   0.381
   283.44    0.381   0.381   0.381   0.381   0.381   0.381   0.381   0.381   0.381   0.381   0.381   0.381   0.381   0.381   0.381   0.381   0.381   0.381   0.381   0.381   0.381   0.381   0.381   0.381   0.381   0.381   0.381   0.381   0.381   0.381   0.381   0.381   0.381   0.381   0.381   0.381   0.381   0.381   0.381   0.381   0.381
   273.12    0.381   0.381   0.381   0.381   0.381   0.381   0.381   0.381   0.381   0.381   0.381   0.381   0.381   0.381   0.381   0.381   0.381   0.381   0.381   0.381   0.381   0.381   0.381   0.381   0.381   0.381   0.381   0.381   0.381   0.381   0.381   0.381   0.381   0.381   0.381   0.381   0.381   0.381   0.381   0.381   0.381
   262.81    0.381   0.381   0.381   0.381   0.381   0.381   0.381   0.381   0.381   0.381   0.381   0.381   0.381   0.381   0.381   0.381   0.381   0.381   0.381   0.381   0.381   0.381   0.381   0.381   0.381   0.381   0.381   0.381   0.381   0.381   0.381   0.381   0.381   0.381   0.381   0.381   0.381   0.381   0.381   0.381   0.381
   252.50    0.381   0.381   0.381   0.381   0.381   0.381   0.381   0.381   0.381   0.381   0.381   0.381   0.381   0.381   0.381   0.381   0.381   0.381   0.381   0.381   0.381   0.381   0.381   0.381   0.381   0.381   0.381   0.381   0.381   0.381   0.381   0.381   0.381   0.381   0.381   0.381   0.381   0.381   0.381   0.381   0.381
   242.19    0.381   0.381   0.381   0.381   0.381   0.381   0.381   0.381   0.381   0.381   0.381   0.381   0.381   0.381   0.381   0.381   0.381   0.381   0.381   0.381   0.381   0.381   0.381   0.381   0.381   0.381   0.381   0.381   0.381   0.381   0.381   0.381   0.381   0.381   0.381   0.381   0.381   0.381   0.381   0.381   0.381
   231.88    0.381   0.381   0.381   0.381   0.381   0.381   0.381   0.381   0.381   0.381   0.381   0.381   0.381   0.381   0.381   0.381   0.381   0.381   0.381   0.381   0.381   0.381   0.381   0.381   0.381   0.381   0.381   0.381   0.381   0.381   0.381   0.381   0.381   0.381   0.381   0.381   0.381   0.381   0.381   0.381   0.381
   221.56    0.381   0.381   0.381   0.381   0.381   0.381   0.381   0.381   0.381   0.381   0.381   0.381   0.381   0.381   0.381   0.381   0.381   0.381   0.381   0.381   0.381   0.381   0.381   0.381   0.381   0.381   0.381   0.381   0.381   0.381   0.381   0.381   0.381   0.381   0.381   0.381   0.381   0.381   0.381   0.381   0.381
   211.25    0.381   0.381   0.381   0.381   0.381   0.381   0.381   0.381   0.381   0.381   0.381   0.381   0.381   0.381   0.381   0.381   0.381   0.381   0.381   0.381   0.381   0.381   0.381   0.381   0.381   0.381   0.381   0.381   0.381   0.381   0.381   0.381   0.381   0.381   0.381   0.381   0.381   0.381   0.381   0.381   0.381
   200.94    0.381   0.381   0.381   0.381   0.381   0.381   0.381   0.381   0.381   0.381   0.381   0.381   0.381   0.381   0.381   0.381   0.381   0.381   0.381   0.381   0.381   0.381   0.381   0.381   0.381   0.381   0.381   0.381   0.381   0.381   0.381   0.381   0.381   0.381   0.381   0.381   0.381   0.381   0.381   0.381   0.381
   190.62    0.381   0.381   0.381   0.381   0.381   0.381   0.381   0.381   0.381   0.381   0.381   0.381   0.381   0.381   0.381   0.381   0.381   0.381   0.381   0.381   0.381   0.381   0.381   0.381   0.381   0.381   0.381   0.381   0.381   0.381   0.381   0.381   0.381   0.381   0.381   0.381   0.381   0.381   0.381   0.381   0.381
   180.31    0.381   0.381   0.381   0.381   0.381   0.381   0.381   0.381   0.381   0.381   0.381   0.381   0.381   0.381   0.381   0.381   0.381   0.381   0.381   0.381   0.381   0.381   0.381   0.381   0.381   0.381   0.381   0.381   0.381   0.381   0.381   0.381   0.381   0.381   0.381   0.381   0.381   0.381   0.381   0.381   0.381
   170.00    0.381   0.381   0.381   0.381   0.381   0.381   0.381   0.381   0.381   0.381   0.381   0.381   0.381   0.381   0.381   0.381   0.381   0.381   0.381   0.381   0.381   0.381   0.381   0.381   0.381   0.381   0.381   0.381   0.381   0.381   0.381   0.381   0.381   0.381   0.381   0.381   0.381   0.381   0.381   0.381   0.381
   159.69    0.381   0.381   0.381   0.381   0.381   0.381   0.381   0.381   0.381   0.381   0.381   0.381   0.381   0.381   0.381   0.381   0.381   0.381   0.381   0.381   0.381   0.381   0.381   0.381   0.381   0.381   0.381   0.381   0.381   0.381   0.381   0.381   0.381   0.381   0.381   0.381   0.381   0.381   0.381   0.381   0.381
   149.38    0.381   0.381   0.381   0.381   0.381   0.381   0.381   0.381   0.381   0.381   0.381   0.381   0.381   0.381   0.381   0.381   0.381   0.381   0.381   0.381   0.381   0.381   0.381   0.381   0.381   0.381   0.381   0.381   0.381   0.381   0.381   0.381   0.381   0.381   0.381   0.381   0.381   0.381   0.381   0.381   0.381
   139.06    0.381   0.381   0.381   0.381   0.381   0.381   0.381   0.381   0.381   0.381   0.381   0.381   0.381   0.381   0.381   0.381   0.381   0.381   0.381   0.381   0.381   0.381   0.381   0.381   0.381   0.381   0.381   0.381   0.381   0.381   0.381   0.381   0.381   0.381   0.381   0.381   0.381   0.381   0.381   0.381   0.381
   128.75    0.381   0.381   0.381   0.381   0.381   0.381   0.381   0.381   0.381   0.381   0.381   0.381   0.381   0.381   0.381   0.381   0.381   0.381   0.381   0.381   0.381   0.381   0.381   0.381   0.381   0.381   0.381   0.381   0.381   0.381   0.381   0.381   0.381   0.381   0.381   0.381   0.381   0.381   0.381   0.381   0.381
   118.44    0.381   0.381   0.381   0.381   0.381   0.381   0.381   0.381   0.381   0.381   0.381   0.381   0.381   0.381   0.381   0.381   0.381   0.381   0.381   0.381   0.381   0.381   0.381   0.381   0.381   0.381   0.381   0.381   0.381   0.381   0.381   0.381   0.381   0.381   0.381   0.381   0.381   0.381   0.381   0.381   0.381
   108.12    0.381   0.381   0.381   0.381   0.381   0.381   0.381   0.381   0.381   0.381   0.381   0.381   0.381   0.381   0.381   0.381   0.381   0.381   0.381   0.381   0.381   0.381   0.381   0.381   0.381   0.381   0.381   0.381   0.381   0.381   0.381   0.381   0.381   0.381   0.381   0.381   0.381   0.381   0.381   0.381   0.381
    97.81    0.381   0.381   0.381   0.381   0.381   0.381   0.381   0.381   0.381   0.381   0.381   0.381   0.381   0.381   0.381   0.381   0.381   0.381   0.381   0.381   0.381   0.381   0.381   0.381   0.381   0.381   0.381   0.381   0.381   0.381   0.381   0.381   0.381   0.381   0.381   0.381   0.381   0.381   0.381   0.381   0.381
    87.50    0.381   0.381   0.381   0.381   0.381   0.381   0.381   0.381   0.381   0.381   0.381   0.381   0.381   0.381   0.381   0.381   0.381   0.381   0.381   0.381   0.381   0.381   0.381   0.381   0.381   0.381   0.381   0.381   0.381   0.381   0.381   0.381   0.381   0.381   0.381   0.381   0.381   0.381   0.381   0.381   0.381
    77.19    0.381   0.381   0.381   0.381   0.381   0.381   0.381   0.381   0.381   0.381   0.381   0.381   0.381   0.381   0.381   0.381   0.381   0.381   0.381   0.381   0.381   0.381   0.381   0.381   0.381   0.381   0.381   0.381   0.381   0.381   0.381   0.381   0.381   0.381   0.381   0.381   0.381   0.381   0.381   0.381   0.381
    66.88    0.381   0.381   0.381   0.381   0.381   0.381   0.381   0.381   0.381   0.381   0.381   0.381   0.381   0.381   0.381   0.381   0.381   0.381   0.381   0.381   0.381   0.381   0.381   0.381   0.381   0.381   0.381   0.381   0.381   0.381   0.381   0.381   0.381   0.381   0.381   0.381   0.381   0.381   0.381   0.381   0.381
    56.56    0.381   0.381   0.381   0.381   0.381   0.381   0.381   0.381   0.381   0.381   0.381   0.381   0.381   0.381   0.381   0.381   0.381   0.381   0.381   0.381   0.381   0.381   0.381   0.381   0.381   0.381   0.381   0.381   0.381   0.381   0.381   0.381   0.381   0.381   0.381   0.381   0.381   0.381   0.381   0.381   0.381
    46.25    0.381   0.381   0.381   0.381   0.381   0.381   0.381   0.381   0.381   0.381   0.381   0.381   0.381   0.381   0.381   0.381   0.381   0.381   0.381   0.381   0.381   0.381   0.381   0.381   0.381   0.381   0.381   0.381   0.381   0.381   0.381   0.381   0.381   0.381   0.381   0.381   0.381   0.381   0.381   0.381   0.381
    35.94    0.381   0.381   0.381   0.381   0.381   0.381   0.381   0.381   0.381   0.381   0.381   0.381   0.381   0.381   0.381   0.381   0.381   0.381   0.381   0.381   0.381   0.381   0.381   0.381   0.381   0.381   0.381   0.381   0.381   0.381   0.381   0.381   0.381   0.381   0.381   0.381   0.381   0.381   0.381   0.381   0.381
    25.62    0.381   0.381   0.381   0.381   0.381   0.381   0.381   0.381   0.381   0.381   0.381   0.381   0.381   0.381   0.381   0.381   0.381   0.381   0.381   0.381   0.381   0.381   0.381   0.381   0.381   0.381   0.381   0.381   0.381   0.381   0.381   0.381   0.381   0.381   0.381   0.381   0.381   0.381   0.381   0.381   0.381
    15.31    0.381   0.381   0.381   0.381   0.381   0.381   0.381   0.381   0.381   0.381   0.381   0.381   0.381   0.381   0.381   0.381   0.381   0.381   0.381   0.381   0.381   0.381   0.381   0.381   0.381   0.381   0.381   0.381   0.381   0.381   0.381   0.381   0.381   0.381   0.381   0.381   0.381   0.381   0.381   0.381   0.381
     5.00    0.381   0.381   0.381   0.381   0.381   0.381   0.381   0.381   0.381   0.381   0.381   0.381   0.381   0.381   0.381   0.381   0.381   0.381   0.381   0.381   0.381   0.381   0.381   0.381   0.381   0.381   0.381   0.381   0.381   0.381   0.381   0.381   0.381   0.381   0.381   0.381   0.381   0.381   0.381   0.381   0.381

   Height   Standard deviation at grid points for the w component:
   335.00    0.230   0.230   0.230   0.230   0.230   0.230   0.230   0.230   0.230   0.230   0.230   0.230   0.230   0.230   0.230   0.230   0.230   0.230   0.230   0.230   0.230   0.230   0.230   0.230   0.230   0.230   0.230   0.230   0.230   0.230   0.230   0.230   0.230   0.230   0.230   0.230   0.230   0.230   0.230   0.230   0.230
   324.69    0.230   0.230   0.230   0.230   0.230   0.230   0.230   0.230   0.230   0.230   0.230   0.230   0.230   0.230   0.230   0.230   0.230   0.230   0.230   0.230   0.230   0.230   0.230   0.230   0.230   0.230   0.230   0.230   0.230   0.230   0.230   0.230   0.230   0.230   0.230   0.230   0.230   0.230   0.230   0.230   0.230
   314.38    0.230   0.230   0.230   0.230   0.230   0.230   0.230   0.230   0.230   0.230   0.230   0.230   0.230   0.230   0.230   0.230   0.230   0.230   0.230   0.230   0.230   0.230   0.230   0.230   0.230   0.230   0.230   0.230   0.230   0.230   0.230   0.230   0.230   0.230   0.230   0.230   0.230   0.230   0.230   0.230   0.230
   304.06    0.230   0.230   0.230   0.230   0.230   0.230   0.230   0.230   0.230   0.230   0.230   0.230   0.230   0.230   0.230   0.230   0.230   0.230   0.230   0.230   0.230   0.230   0.230   0.230   0.230   0.230   0.230   0.230   0.230   0.230   0.230   0.230   0.230   0.230   0.230   0.230   0.230   0.230   0.230   0.230   0.230
   293.75    0.230   0.230   0.230   0.230   0.230   0.230   0.230   0.230   0.230   0.230   0.230   0.230   0.230   0.230   0.230   0.230   0.230   0.230   0.230   0.230   0.230   0.230   0.230   0.230   0.230   0.230   0.230   0.230   0.230   0.230   0.230   0.230   0.230   0.230   0.230   0.230   0.230   0.230   0.230   0.230   0.230
   283.44    0.230   0.230   0.230   0.230   0.230   0.230   0.230   0.230   0.230   0.230   0.230   0.230   0.230   0.230   0.230   0.230   0.230   0.230   0.230   0.230   0.230   0.230   0.230   0.230   0.230   0.230   0.230   0.230   0.230   0.230   0.230   0.230   0.230   0.230   0.230   0.230   0.230   0.230   0.230   0.230   0.230
   273.12    0.230   0.230   0.230   0.230   0.230   0.230   0.230   0.230   0.230   0.230   0.230   0.230   0.230   0.230   0.230   0.230   0.230   0.230   0.230   0.230   0.230   0.230   0.230   0.230   0.230   0.230   0.230   0.230   0.230   0.230   0.230   0.230   0.230   0.230   0.230   0.230   0.230   0.230   0.230   0.230   0.230
   262.81    0.230   0.230   0.230   0.230   0.230   0.230   0.230   0.230   0.230   0.230   0.230   0.230   0.230   0.230   0.230   0.230   0.230   0.230   0.230   0.230   0.230   0.230   0.230   0.230   0.230   0.230   0.230   0.230   0.230   0.230   0.230   0.230   0.230   0.230   0.230   0.230   0.230   0.230   0.230   0.230   0.230
   252.50    0.230   0.230   0.230   0.230   0.230   0.230   0.230   0.230   0.230   0.230   0.230   0.230   0.230   0.230   0.230   0.230   0.230   0.230   0.230   0.230   0.230   0.230   0.230   0.230   0.230   0.230   0.230   0.230   0.230   0.230   0.230   0.230   0.230   0.230   0.230   0.230   0.230   0.230   0.230   0.230   0.230
   242.19    0.230   0.230   0.230   0.230   0.230   0.230   0.230   0.230   0.230   0.230   0.230   0.230   0.230   0.230   0.230   0.230   0.230   0.230   0.230   0.230   0.230   0.230   0.230   0.230   0.230   0.230   0.230   0.230   0.230   0.230   0.230   0.230   0.230   0.230   0.230   0.230   0.230   0.230   0.230   0.230   0.230
   231.88    0.230   0.230   0.230   0.230   0.230   0.230   0.230   0.230   0.230   0.230   0.230   0.230   0.230   0.230   0.230   0.230   0.230   0.230   0.230   0.230   0.230   0.230   0.230   0.230   0.230   0.230   0.230   0.230   0.230   0.230   0.230   0.230   0.230   0.230   0.230   0.230   0.230   0.230   0.230   0.230   0.230
   221.56    0.230   0.230   0.230   0.230   0.230   0.230   0.230   0.230   0.230   0.230   0.230   0.230   0.230   0.230   0.230   0.230   0.230   0.230   0.230   0.230   0.230   0.230   0.230   0.230   0.230   0.230   0.230   0.230   0.230   0.230   0.230   0.230   0.230   0.230   0.230   0.230   0.230   0.230   0.230   0.230   0.230
   211.25    0.230   0.230   0.230   0.230   0.230   0.230   0.230   0.230   0.230   0.230   0.230   0.230   0.230   0.230   0.230   0.230   0.230   0.230   0.230   0.230   0.230   0.230   0.230   0.230   0.230   0.230   0.230   0.230   0.230   0.230   0.230   0.230   0.230   0.230   0.230   0.230   0.230   0.230   0.230   0.230   0.230
   200.94    0.230   0.230   0.230   0.230   0.230   0.230   0.230   0.230   0.230   0.230   0.230   0.230   0.230   0.230   0.230   0.230   0.230   0.230   0.230   0.230   0.230   0.230   0.230   0.230   0.230   0.230   0.230   0.230   0.230   0.230   0.230   0.230   0.230   0.230   0.230   0.230   0.230   0.230   0.230   0.230   0.230
   190.62    0.230   0.230   0.230   0.230   0.230   0.230   0.230   0.230   0.230   0.230   0.230   0.230   0.230   0.230   0.230   0.230   0.230   0.230   0.230   0.230   0.230   0.230   0.230   0.230   0.230   0.230   0.230   0.230   0.230   0.230   0.230   0.230   0.230   0.230   0.230   0.230   0.230   0.230   0.230   0.230   0.230
   180.31    0.230   0.230   0.230   0.230   0.230   0.230   0.230   0.230   0.230   0.230   0.230   0.230   0.230   0.230   0.230   0.230   0.230   0.230   0.230   0.230   0.230   0.230   0.230   0.230   0.230   0.230   0.230   0.230   0.230   0.230   0.230   0.230   0.230   0.230   0.230   0.230   0.230   0.230   0.230   0.230   0.230
   170.00    0.230   0.230   0.230   0.230   0.230   0.230   0.230   0.230   0.230   0.230   0.230   0.230   0.230   0.230   0.230   0.230   0.230   0.230   0.230   0.230   0.230   0.230   0.230   0.230   0.230   0.230   0.230   0.230   0.230   0.230   0.230   0.230   0.230   0.230   0.230   0.230   0.230   0.230   0.230   0.230   0.230
   159.69    0.230   0.230   0.230   0.230   0.230   0.230   0.230   0.230   0.230   0.230   0.230   0.230   0.230   0.230   0.230   0.230   0.230   0.230   0.230   0.230   0.230   0.230   0.230   0.230   0.230   0.230   0.230   0.230   0.230   0.230   0.230   0.230   0.230   0.230   0.230   0.230   0.230   0.230   0.230   0.230   0.230
   149.38    0.230   0.230   0.230   0.230   0.230   0.230   0.230   0.230   0.230   0.230   0.230   0.230   0.230   0.230   0.230   0.230   0.230   0.230   0.230   0.230   0.230   0.230   0.230   0.230   0.230   0.230   0.230   0.230   0.230   0.230   0.230   0.230   0.230   0.230   0.230   0.230   0.230   0.230   0.230   0.230   0.230
   139.06    0.230   0.230   0.230   0.230   0.230   0.230   0.230   0.230   0.230   0.230   0.230   0.230   0.230   0.230   0.230   0.230   0.230   0.230   0.230   0.230   0.230   0.230   0.230   0.230   0.230   0.230   0.230   0.230   0.230   0.230   0.230   0.230   0.230   0.230   0.230   0.230   0.230   0.230   0.230   0.230   0.230
   128.75    0.230   0.230   0.230   0.230   0.230   0.230   0.230   0.230   0.230   0.230   0.230   0.230   0.230   0.230   0.230   0.230   0.230   0.230   0.230   0.230   0.230   0.230   0.230   0.230   0.230   0.230   0.230   0.230   0.230   0.230   0.230   0.230   0.230   0.230   0.230   0.230   0.230   0.230   0.230   0.230   0.230
   118.44    0.230   0.230   0.230   0.230   0.230   0.230   0.230   0.230   0.230   0.230   0.230   0.230   0.230   0.230   0.230   0.230   0.230   0.230   0.230   0.230   0.230   0.230   0.230   0.230   0.230   0.230   0.230   0.230   0.230   0.230   0.230   0.230   0.230   0.230   0.230   0.230   0.230   0.230   0.230   0.230   0.230
   108.12    0.230   0.230   0.230   0.230   0.230   0.230   0.230   0.230   0.230   0.230   0.230   0.230   0.230   0.230   0.230   0.230   0.230   0.230   0.230   0.230   0.230   0.230   0.230   0.230   0.230   0.230   0.230   0.230   0.230   0.230   0.230   0.230   0.230   0.230   0.230   0.230   0.230   0.230   0.230   0.230   0.230
    97.81    0.230   0.230   0.230   0.230   0.230   0.230   0.230   0.230   0.230   0.230   0.230   0.230   0.230   0.230   0.230   0.230   0.230   0.230   0.230   0.230   0.230   0.230   0.230   0.230   0.230   0.230   0.230   0.230   0.230   0.230   0.230   0.230   0.230   0.230   0.230   0.230   0.230   0.230   0.230   0.230   0.230
    87.50    0.230   0.230   0.230   0.230   0.230   0.230   0.230   0.230   0.230   0.230   0.230   0.230   0.230   0.230   0.230   0.230   0.230   0.230   0.230   0.230   0.230   0.230   0.230   0.230   0.230   0.230   0.230   0.230   0.230   0.230   0.230   0.230   0.230   0.230   0.230   0.230   0.230   0.230   0.230   0.230   0.230
    77.19    0.230   0.230   0.230   0.230   0.230   0.230   0.230   0.230   0.230   0.230   0.230   0.230   0.230   0.230   0.230   0.230   0.230   0.230   0.230   0.230   0.230   0.230   0.230   0.230   0.230   0.230   0.230   0.230   0.230   0.230   0.230   0.230   0.230   0.230   0.230   0.230   0.230   0.230   0.230   0.230   0.230
    66.88    0.230   0.230   0.230   0.230   0.230   0.230   0.230   0.230   0.230   0.230   0.230   0.230   0.230   0.230   0.230   0.230   0.230   0.230   0.230   0.230   0.230   0.230   0.230   0.230   0.230   0.230   0.230   0.230   0.230   0.230   0.230   0.230   0.230   0.230   0.230   0.230   0.230   0.230   0.230   0.230   0.230
    56.56    0.230   0.230   0.230   0.230   0.230   0.230   0.230   0.230   0.230   0.230   0.230   0.230   0.230   0.230   0.230   0.230   0.230   0.230   0.230   0.230   0.230   0.230   0.230   0.230   0.230   0.230   0.230   0.230   0.230   0.230   0.230   0.230   0.230   0.230   0.230   0.230   0.230   0.230   0.230   0.230   0.230
    46.25    0.230   0.230   0.230   0.230   0.230   0.230   0.230   0.230   0.230   0.230   0.230   0.230   0.230   0.230   0.230   0.230   0.230   0.230   0.230   0.230   0.230   0.230   0.230   0.230   0.230   0.230   0.230   0.230   0.230   0.230   0.230   0.230   0.230   0.230   0.230   0.230   0.230   0.230   0.230   0.230   0.230
    35.94    0.230   0.230   0.230   0.230   0.230   0.230   0.230   0.230   0.230   0.230   0.230   0.230   0.230   0.230   0.230   0.230   0.230   0.230   0.230   0.230   0.230   0.230   0.230   0.230   0.230   0.230   0.230   0.230   0.230   0.230   0.230   0.230   0.230   0.230   0.230   0.230   0.230   0.230   0.230   0.230   0.230
    25.62    0.230   0.230   0.230   0.230   0.230   0.230   0.230   0.230   0.230   0.230   0.230   0.230   0.230   0.230   0.230   0.230   0.230   0.230   0.230   0.230   0.230   0.230   0.230   0.230   0.230   0.230   0.230   0.230   0.230   0.230   0.230   0.230   0.230   0.230   0.230   0.230   0.230   0.230   0.230   0.230   0.230
    15.31    0.230   0.230   0.230   0.230   0.230   0.230   0.230   0.230   0.230   0.230   0.230   0.230   0.230   0.230   0.230   0.230   0.230   0.230   0.230   0.230   0.230   0.230   0.230   0.230   0.230   0.230   0.230   0.230   0.230   0.230   0.230   0.230   0.230   0.230   0.230   0.230   0.230   0.230   0.230   0.230   0.230
     5.00    0.230   0.230   0.230   0.230   0.230   0.230   0.230   0.230   0.230   0.230   0.230   0.230   0.230   0.230   0.230   0.230   0.230   0.230   0.230   0.230   0.230   0.230   0.230   0.230   0.230   0.230   0.230   0.230   0.230   0.230   0.230   0.230   0.230   0.230   0.230   0.230   0.230   0.230   0.230   0.230   0.230

   Mean standard deviation across all grid points:
      u component:    0.474 m/s
      v component:    0.381 m/s
      w component:    0.230 m/s


U-component (X) statistics from the interpolated hub point:

   Mean =  10.0000 m/s
   TI   =   4.9499 %


Processing complete.  3.0156 CPU seconds used.
