
This summary file was generated by TurbSim (from OpenFAST-v3.5.3) on 11-Dec-2024 at 14:34:25.


Runtime Options:

   4683464  Random seed #1
    RANLUX  Type of random number generator
         F  Output binary HH turbulence parameters?
         T  Output formatted turbulence parameters?
         F  Output AeroDyn HH files?
         T  Output AeroDyn FF files?
         F  Output BLADED FF files?
         F  Output tower data?
         F  Output HAWC FF files?
         F  Output formatted FF files?
         T  Output coherent turbulence time step file?
 0 -  NONE  IEC turbulence models scaled to exact specified standard deviation


Turbine/Model Specifications:

        33  Vertical grid-point matrix dimension
        41  Horizontal grid-point matrix dimension
     0.500  Time step [seconds]
   660.000  Analysis time [seconds]
   660.000  Usable output time [seconds]
   170.000  Hub height [m]
   330.000  Grid height [m]
   405.000  Grid width [m]
     0.000  Vertical flow angle [degrees]
     0.000  Horizontal flow angle [degrees]


Meteorological Boundary Conditions:

    IECKAI  IEC Kaimal spectral model
         1  IEC standard: IEC 61400-1 Ed. 3: 2005
     5.000  Percent turbulence intensity, IEC 61400-1 Ed. 3: 2005
       NTM  IEC Normal Turbulence Model
       N/A  IEC Extreme Turbulence Model (ETM) "c" parameter [m/s]
       PL   Wind profile type
   170.000  Reference height [m]
    16.111  Reference wind speed [m/s]
       N/A  Jet height [m]
     0.000  Power law exponent
     0.030  Surface roughness length [m]


Non-IEC Meteorological Boundary Conditions:

       N/A  Site latitude [degrees]
       N/A  Gradient Richardson number
       N/A  Friction or shear velocity [m/s]
       N/A  Mixing layer depth [m]
       N/A  Mean hub u'w' Reynolds stress
       N/A  Mean hub u'v' Reynolds stress
       N/A  Mean hub v'w' Reynolds stress


Spatial Coherence Models:

       IEC  u-component coherence model
      NONE  v-component coherence model
      NONE  w-component coherence model
(   12.000, 0.353E-03)  u-component coherence parameters
                   N/A  v-component coherence parameters
                   N/A  w-component coherence parameters
       N/A  Coherence exponent


You have requested that the following file(s) be generated:

   1_Configuration/Inflow_files/TurbSim_input_temp.dat (formatted turbulence-parameter file)
   1_Configuration/Inflow_files/TurbSim_input_temp.bts (AeroDyn/TurbSim full-field wind file)


Turbulence Simulation Scaling Parameter Summary:

   Turbulence model used                            =  IEC Kaimal
   Turbulence characteristic                        =  User-specified
   IEC standard                                     =  IEC 61400-1 Ed. 3: 2005
   Mean wind speed at hub height                    =   16.111 m/s
   Characteristic value of standard deviation       =    0.806 m/s
   Turbulence scale                                 =   42.000 m
   u-component integral scale                       =  340.200 m
   Coherency scale                                  =  340.200 m
   Characteristic value of hub turbulence intensity =    5.000%
   Gradient Richardson number                       =    0.000

   Wind profile type                                =  Power law
   Power law exponent                               =    0.000
   Mean shear across rotor disk                     =    0.000 (m/s)/m
   Assumed rotor diameter                           =  330.000 m
   Surface roughness length                         =    0.030 m

   Nyquist frequency of turbulent wind field        =    1.000 Hz

   Number of time steps in the FFT                  =     1320
   Number of time steps output                      =     1320
   Number of points simulated                       =     1353


Mean Flow Angles:

   Vertical   =   0.0 degrees
   Horizontal =   0.0 degrees

Mean Wind Speed Profile:

   Height    Wind Speed   Horizontal Angle  Vertical Angle  U-comp (X)   V-comp (Y)   W-comp (Z)
     (m)        (m/s)         (degrees)       (degrees)       (m/s)        (m/s)        (m/s)   
   ------    ----------   ----------------  --------------  ----------   ----------   ----------
    335.0       16.11            0.00            0.00         16.11         0.00         0.00
    324.7       16.11            0.00            0.00         16.11         0.00         0.00
    314.4       16.11            0.00            0.00         16.11         0.00         0.00
    304.1       16.11            0.00            0.00         16.11         0.00         0.00
    293.8       16.11            0.00            0.00         16.11         0.00         0.00
    283.4       16.11            0.00            0.00         16.11         0.00         0.00
    273.1       16.11            0.00            0.00         16.11         0.00         0.00
    262.8       16.11            0.00            0.00         16.11         0.00         0.00
    252.5       16.11            0.00            0.00         16.11         0.00         0.00
    242.2       16.11            0.00            0.00         16.11         0.00         0.00
    231.9       16.11            0.00            0.00         16.11         0.00         0.00
    221.6       16.11            0.00            0.00         16.11         0.00         0.00
    211.2       16.11            0.00            0.00         16.11         0.00         0.00
    200.9       16.11            0.00            0.00         16.11         0.00         0.00
    190.6       16.11            0.00            0.00         16.11         0.00         0.00
    180.3       16.11            0.00            0.00         16.11         0.00         0.00
    170.0       16.11            0.00            0.00         16.11         0.00         0.00
    159.7       16.11            0.00            0.00         16.11         0.00         0.00
    149.4       16.11            0.00            0.00         16.11         0.00         0.00
    139.1       16.11            0.00            0.00         16.11         0.00         0.00
    128.8       16.11            0.00            0.00         16.11         0.00         0.00
    118.4       16.11            0.00            0.00         16.11         0.00         0.00
    108.1       16.11            0.00            0.00         16.11         0.00         0.00
     97.8       16.11            0.00            0.00         16.11         0.00         0.00
     87.5       16.11            0.00            0.00         16.11         0.00         0.00
     77.2       16.11            0.00            0.00         16.11         0.00         0.00
     66.9       16.11            0.00            0.00         16.11         0.00         0.00
     56.6       16.11            0.00            0.00         16.11         0.00         0.00
     46.2       16.11            0.00            0.00         16.11         0.00         0.00
     35.9       16.11            0.00            0.00         16.11         0.00         0.00
     25.6       16.11            0.00            0.00         16.11         0.00         0.00
     15.3       16.11            0.00            0.00         16.11         0.00         0.00
      5.0       16.11            0.00            0.00         16.11         0.00         0.00


Harvested Random Seeds after Generation of the Random Numbers:

     24891718 K 1
            0 K 2


Hub-Height Simulated Turbulence Statistical Summary:

   Type of Wind        Min (m/s)   Mean (m/s)    Max (m/s)  Sigma (m/s)       TI (%)
   ----------------    ---------   ----------    ---------  -----------       ------
   Longitudinal (u)        13.99        16.11        18.46        0.770        4.778
   Lateral (v)             -1.77        -0.00         1.91        0.611        3.790
   Vertical (w)            -1.30         0.00         1.34        0.359        2.231
   U component             13.99        16.11        18.46        0.770        4.778
   V component             -1.77        -0.00         1.91        0.611        3.790
   W component             -1.30         0.00         1.34        0.359        2.231
   Horizontal (U&V)        14.07        16.12        18.48        0.771        4.784
   Total                   14.08        16.13        18.48        0.771        4.783

                       Min Reynolds     Mean Reynolds    Max Reynolds    Correlation
   Product             Stress (m/s)^2   Stress (m/s)^2   Stress (m/s)^2  Coefficient
   ----------------    --------------   --------------   --------------  -----------
   u'w'                     -1.355             0.022             1.444         0.078
   u'v'                     -3.260             0.057             2.834         0.122
   v'w'                     -1.438             0.008             1.353         0.035


   Friction Velocity (Ustar)  =      0.147 m/s
   Maximum Instantaneous TKE  =      3.474 (m/s)^2
   Maximum Instantaneous CTKE =      1.675 (m/s)^2


Grid Point Variance Summary:

   Y-coord -202.50 -192.38 -182.25 -172.12 -162.00 -151.88 -141.75 -131.62 -121.50 -111.38 -101.25  -91.12  -81.00  -70.88  -60.75  -50.62  -40.50  -30.38  -20.25  -10.12    0.00   10.12   20.25   30.38   40.50   50.62   60.75   70.88   81.00   91.12  101.25  111.38  121.50  131.62  141.75  151.88  162.00  172.12  182.25  192.38  202.50

   Height   Standard deviation at grid points for the u component:
   335.00    0.785   0.739   0.689   0.701   0.674   0.716   0.694   0.705   0.706   0.737   0.758   0.664   0.652   0.650   0.623   0.638   0.673   0.668   0.716   0.766   0.771   0.789   0.831   0.878   0.954   1.010   0.982   1.037   1.024   1.026   1.016   1.006   0.892   0.895   0.901   0.818   0.786   0.787   0.767   0.731   0.779
   324.69    0.789   0.785   0.676   0.646   0.679   0.683   0.651   0.699   0.694   0.764   0.791   0.753   0.724   0.693   0.640   0.644   0.713   0.711   0.708   0.719   0.762   0.810   0.818   0.907   0.878   0.953   0.989   1.012   0.996   1.003   0.995   0.979   0.901   0.900   0.855   0.796   0.810   0.802   0.781   0.757   0.805
   314.38    0.802   0.749   0.697   0.698   0.729   0.727   0.761   0.769   0.732   0.828   0.778   0.792   0.786   0.764   0.700   0.684   0.734   0.742   0.753   0.774   0.791   0.837   0.867   0.929   0.952   0.957   0.957   0.983   0.966   0.965   0.928   0.878   0.845   0.852   0.845   0.850   0.800   0.756   0.776   0.836   0.839
   304.06    0.723   0.727   0.733   0.692   0.746   0.730   0.785   0.736   0.752   0.795   0.757   0.802   0.761   0.769   0.698   0.777   0.778   0.781   0.798   0.760   0.821   0.826   0.808   0.868   0.901   0.939   0.929   0.921   0.889   0.874   0.831   0.788   0.769   0.797   0.749   0.832   0.828   0.766   0.844   0.903   0.903
   293.75    0.709   0.724   0.694   0.715   0.734   0.720   0.741   0.752   0.744   0.777   0.786   0.751   0.757   0.729   0.713   0.778   0.757   0.783   0.748   0.796   0.837   0.816   0.811   0.864   0.895   0.942   0.910   0.892   0.882   0.839   0.832   0.778   0.762   0.765   0.799   0.799   0.811   0.829   0.847   0.838   0.895
   283.44    0.704   0.746   0.679   0.736   0.754   0.745   0.750   0.775   0.803   0.779   0.787   0.773   0.764   0.764   0.761   0.784   0.808   0.783   0.798   0.793   0.821   0.780   0.860   0.872   0.810   0.862   0.847   0.886   0.853   0.876   0.843   0.856   0.818   0.721   0.736   0.734   0.787   0.863   0.886   0.862   0.828
   273.12    0.734   0.716   0.720   0.760   0.763   0.761   0.764   0.777   0.815   0.820   0.817   0.800   0.823   0.855   0.821   0.826   0.830   0.796   0.802   0.823   0.787   0.817   0.830   0.827   0.810   0.835   0.817   0.834   0.793   0.813   0.803   0.826   0.833   0.787   0.740   0.721   0.763   0.833   0.835   0.821   0.805
   262.81    0.760   0.727   0.685   0.706   0.762   0.800   0.807   0.827   0.837   0.805   0.821   0.827   0.890   0.905   0.832   0.825   0.813   0.801   0.763   0.799   0.774   0.794   0.866   0.835   0.768   0.769   0.755   0.796   0.713   0.757   0.769   0.789   0.767   0.764   0.739   0.700   0.726   0.779   0.825   0.771   0.733
   252.50    0.796   0.761   0.678   0.728   0.729   0.798   0.800   0.786   0.821   0.798   0.762   0.842   0.835   0.865   0.848   0.870   0.843   0.837   0.809   0.776   0.735   0.781   0.843   0.787   0.801   0.812   0.781   0.763   0.754   0.757   0.719   0.742   0.764   0.753   0.777   0.730   0.768   0.726   0.787   0.786   0.777
   242.19    0.765   0.723   0.699   0.708   0.769   0.815   0.845   0.857   0.801   0.823   0.884   0.869   0.867   0.807   0.853   0.890   0.869   0.853   0.839   0.798   0.784   0.766   0.773   0.774   0.753   0.753   0.735   0.750   0.741   0.722   0.709   0.713   0.733   0.792   0.790   0.777   0.751   0.764   0.735   0.726   0.704
   231.88    0.767   0.728   0.690   0.692   0.720   0.786   0.826   0.819   0.855   0.888   0.882   0.888   0.850   0.843   0.872   0.885   0.845   0.849   0.814   0.803   0.771   0.760   0.724   0.724   0.731   0.715   0.682   0.740   0.714   0.744   0.751   0.754   0.770   0.826   0.815   0.757   0.748   0.762   0.725   0.694   0.714
   221.56    0.764   0.721   0.727   0.704   0.793   0.796   0.823   0.833   0.878   0.890   0.870   0.821   0.846   0.893   0.914   0.896   0.784   0.834   0.806   0.751   0.745   0.746   0.733   0.698   0.730   0.706   0.720   0.731   0.736   0.735   0.753   0.775   0.845   0.775   0.796   0.735   0.746   0.728   0.720   0.737   0.730
   211.25    0.763   0.757   0.757   0.793   0.796   0.827   0.872   0.872   0.884   0.851   0.863   0.873   0.880   0.928   0.931   0.901   0.838   0.811   0.844   0.774   0.756   0.774   0.718   0.720   0.725   0.715   0.690   0.679   0.715   0.736   0.689   0.734   0.767   0.762   0.782   0.742   0.710   0.725   0.712   0.708   0.695
   200.94    0.765   0.769   0.799   0.815   0.802   0.843   0.937   0.893   0.920   0.868   0.873   0.875   0.841   0.841   0.828   0.868   0.824   0.839   0.831   0.766   0.744   0.754   0.798   0.760   0.700   0.692   0.677   0.666   0.669   0.680   0.675   0.695   0.702   0.692   0.715   0.710   0.746   0.720   0.747   0.724   0.698
   190.62    0.739   0.815   0.860   0.875   0.852   0.877   0.923   0.914   0.875   0.896   0.883   0.800   0.829   0.825   0.810   0.821   0.840   0.798   0.811   0.808   0.748   0.734   0.755   0.747   0.678   0.668   0.678   0.659   0.680   0.707   0.735   0.671   0.658   0.670   0.687   0.672   0.680   0.712   0.697   0.692   0.705
   180.31    0.759   0.770   0.829   0.840   0.877   0.878   0.880   0.853   0.903   0.881   0.807   0.836   0.831   0.854   0.776   0.791   0.789   0.776   0.808   0.761   0.776   0.777   0.730   0.756   0.687   0.631   0.722   0.718   0.700   0.734   0.767   0.718   0.708   0.686   0.706   0.681   0.637   0.666   0.639   0.681   0.678
   170.00    0.779   0.810   0.822   0.795   0.806   0.818   0.795   0.825   0.794   0.854   0.805   0.814   0.836   0.883   0.862   0.809   0.768   0.741   0.787   0.791   0.770   0.701   0.744   0.722   0.713   0.704   0.699   0.718   0.717   0.745   0.730   0.695   0.676   0.705   0.670   0.645   0.594   0.656   0.624   0.626   0.699
   159.69    0.817   0.833   0.742   0.788   0.803   0.771   0.778   0.787   0.814   0.805   0.827   0.814   0.791   0.854   0.824   0.808   0.818   0.784   0.796   0.862   0.778   0.725   0.756   0.702   0.764   0.736   0.712   0.734   0.752   0.765   0.750   0.679   0.665   0.674   0.673   0.647   0.658   0.675   0.665   0.696   0.718
   149.38    0.786   0.746   0.800   0.786   0.765   0.779   0.753   0.704   0.761   0.761   0.776   0.780   0.833   0.848   0.841   0.759   0.747   0.748   0.851   0.816   0.802   0.744   0.729   0.677   0.683   0.722   0.749   0.757   0.748   0.741   0.712   0.716   0.648   0.657   0.656   0.629   0.651   0.676   0.680   0.721   0.779
   139.06    0.766   0.771   0.859   0.807   0.787   0.762   0.712   0.721   0.714   0.728   0.786   0.769   0.802   0.826   0.811   0.808   0.799   0.776   0.791   0.849   0.770   0.789   0.765   0.718   0.742   0.741   0.772   0.755   0.762   0.741   0.715   0.744   0.688   0.651   0.689   0.620   0.668   0.697   0.683   0.719   0.714
   128.75    0.798   0.803   0.826   0.799   0.819   0.760   0.744   0.699   0.689   0.755   0.787   0.837   0.841   0.820   0.812   0.809   0.755   0.767   0.737   0.770   0.746   0.778   0.770   0.755   0.727   0.780   0.768   0.777   0.777   0.752   0.741   0.716   0.721   0.668   0.645   0.715   0.709   0.736   0.763   0.735   0.797
   118.44    0.800   0.810   0.806   0.800   0.740   0.707   0.709   0.677   0.707   0.742   0.801   0.867   0.911   0.853   0.830   0.766   0.802   0.751   0.741   0.721   0.699   0.718   0.770   0.773   0.739   0.755   0.777   0.706   0.703   0.726   0.701   0.711   0.714   0.672   0.712   0.700   0.725   0.737   0.792   0.827   0.787
   108.12    0.713   0.759   0.788   0.782   0.779   0.757   0.704   0.696   0.707   0.823   0.871   0.917   0.876   0.913   0.884   0.772   0.769   0.695   0.705   0.707   0.728   0.726   0.774   0.781   0.731   0.766   0.737   0.722   0.706   0.655   0.662   0.693   0.706   0.663   0.658   0.685   0.754   0.780   0.778   0.784   0.820
    97.81    0.700   0.745   0.744   0.790   0.780   0.763   0.775   0.700   0.733   0.768   0.830   0.888   0.877   0.912   0.887   0.809   0.722   0.724   0.680   0.705   0.661   0.710   0.737   0.754   0.778   0.715   0.764   0.698   0.669   0.669   0.692   0.717   0.682   0.643   0.659   0.709   0.726   0.768   0.766   0.730   0.740
    87.50    0.677   0.694   0.724   0.691   0.776   0.767   0.759   0.728   0.758   0.758   0.766   0.825   0.822   0.814   0.828   0.832   0.754   0.713   0.712   0.690   0.723   0.764   0.772   0.758   0.748   0.757   0.721   0.679   0.680   0.700   0.687   0.727   0.691   0.698   0.689   0.726   0.764   0.752   0.785   0.707   0.718
    77.19    0.659   0.743   0.772   0.758   0.793   0.768   0.774   0.764   0.733   0.820   0.773   0.821   0.891   0.854   0.796   0.799   0.713   0.676   0.675   0.724   0.732   0.736   0.779   0.723   0.731   0.735   0.745   0.725   0.781   0.759   0.701   0.749   0.756   0.734   0.755   0.787   0.815   0.817   0.741   0.731   0.729
    66.88    0.787   0.741   0.762   0.788   0.760   0.771   0.750   0.752   0.742   0.716   0.748   0.774   0.817   0.832   0.778   0.761   0.733   0.687   0.721   0.679   0.725   0.695   0.753   0.741   0.732   0.758   0.736   0.767   0.789   0.735   0.700   0.758   0.763   0.761   0.810   0.801   0.797   0.805   0.764   0.717   0.730
    56.56    0.797   0.777   0.736   0.792   0.775   0.761   0.757   0.745   0.783   0.727   0.731   0.725   0.701   0.752   0.737   0.712   0.626   0.649   0.673   0.693   0.728   0.783   0.754   0.749   0.761   0.753   0.755   0.757   0.739   0.712   0.758   0.714   0.757   0.738   0.782   0.792   0.740   0.786   0.819   0.764   0.790
    46.25    0.770   0.781   0.778   0.784   0.763   0.782   0.786   0.724   0.710   0.743   0.724   0.740   0.722   0.678   0.713   0.688   0.658   0.637   0.683   0.688   0.734   0.774   0.776   0.761   0.817   0.794   0.717   0.757   0.724   0.736   0.735   0.743   0.788   0.781   0.781   0.809   0.759   0.792   0.796   0.770   0.818
    35.94    0.802   0.753   0.748   0.752   0.800   0.683   0.732   0.742   0.693   0.698   0.767   0.789   0.754   0.748   0.747   0.738   0.707   0.654   0.677   0.663   0.731   0.722   0.759   0.815   0.822   0.821   0.748   0.753   0.752   0.709   0.775   0.761   0.726   0.739   0.724   0.738   0.766   0.763   0.785   0.751   0.798
    25.62    0.764   0.706   0.723   0.770   0.779   0.794   0.738   0.750   0.710   0.690   0.752   0.794   0.728   0.715   0.748   0.708   0.701   0.660   0.651   0.691   0.772   0.788   0.791   0.798   0.865   0.793   0.759   0.688   0.641   0.745   0.710   0.735   0.758   0.721   0.751   0.751   0.750   0.741   0.773   0.774   0.793
    15.31    0.767   0.759   0.768   0.744   0.783   0.774   0.763   0.736   0.756   0.749   0.781   0.761   0.751   0.698   0.704   0.709   0.666   0.700   0.685   0.697   0.725   0.768   0.820   0.826   0.805   0.826   0.767   0.674   0.622   0.672   0.715   0.684   0.750   0.743   0.717   0.652   0.696   0.710   0.745   0.776   0.728
     5.00    0.764   0.781   0.774   0.793   0.776   0.755   0.782   0.788   0.760   0.755   0.786   0.751   0.713   0.721   0.695   0.712   0.677   0.688   0.719   0.681   0.769   0.807   0.810   0.822   0.825   0.870   0.783   0.681   0.691   0.664   0.685   0.673   0.690   0.731   0.704   0.661   0.724   0.729   0.738   0.741   0.751

   Height   Standard deviation at grid points for the v component:
   335.00    0.611   0.611   0.611   0.611   0.611   0.611   0.611   0.611   0.611   0.611   0.611   0.611   0.611   0.611   0.611   0.611   0.611   0.611   0.611   0.611   0.611   0.611   0.611   0.611   0.611   0.611   0.611   0.611   0.611   0.611   0.611   0.611   0.611   0.611   0.611   0.611   0.611   0.611   0.611   0.611   0.611
   324.69    0.611   0.611   0.611   0.611   0.611   0.611   0.611   0.611   0.611   0.611   0.611   0.611   0.611   0.611   0.611   0.611   0.611   0.611   0.611   0.611   0.611   0.611   0.611   0.611   0.611   0.611   0.611   0.611   0.611   0.611   0.611   0.611   0.611   0.611   0.611   0.611   0.611   0.611   0.611   0.611   0.611
   314.38    0.611   0.611   0.611   0.611   0.611   0.611   0.611   0.611   0.611   0.611   0.611   0.611   0.611   0.611   0.611   0.611   0.611   0.611   0.611   0.611   0.611   0.611   0.611   0.611   0.611   0.611   0.611   0.611   0.611   0.611   0.611   0.611   0.611   0.611   0.611   0.611   0.611   0.611   0.611   0.611   0.611
   304.06    0.611   0.611   0.611   0.611   0.611   0.611   0.611   0.611   0.611   0.611   0.611   0.611   0.611   0.611   0.611   0.611   0.611   0.611   0.611   0.611   0.611   0.611   0.611   0.611   0.611   0.611   0.611   0.611   0.611   0.611   0.611   0.611   0.611   0.611   0.611   0.611   0.611   0.611   0.611   0.611   0.611
   293.75    0.611   0.611   0.611   0.611   0.611   0.611   0.611   0.611   0.611   0.611   0.611   0.611   0.611   0.611   0.611   0.611   0.611   0.611   0.611   0.611   0.611   0.611   0.611   0.611   0.611   0.611   0.611   0.611   0.611   0.611   0.611   0.611   0.611   0.611   0.611   0.611   0.611   0.611   0.611   0.611   0.611
   283.44    0.611   0.611   0.611   0.611   0.611   0.611   0.611   0.611   0.611   0.611   0.611   0.611   0.611   0.611   0.611   0.611   0.611   0.611   0.611   0.611   0.611   0.611   0.611   0.611   0.611   0.611   0.611   0.611   0.611   0.611   0.611   0.611   0.611   0.611   0.611   0.611   0.611   0.611   0.611   0.611   0.611
   273.12    0.611   0.611   0.611   0.611   0.611   0.611   0.611   0.611   0.611   0.611   0.611   0.611   0.611   0.611   0.611   0.611   0.611   0.611   0.611   0.611   0.611   0.611   0.611   0.611   0.611   0.611   0.611   0.611   0.611   0.611   0.611   0.611   0.611   0.611   0.611   0.611   0.611   0.611   0.611   0.611   0.611
   262.81    0.611   0.611   0.611   0.611   0.611   0.611   0.611   0.611   0.611   0.611   0.611   0.611   0.611   0.611   0.611   0.611   0.611   0.611   0.611   0.611   0.611   0.611   0.611   0.611   0.611   0.611   0.611   0.611   0.611   0.611   0.611   0.611   0.611   0.611   0.611   0.611   0.611   0.611   0.611   0.611   0.611
   252.50    0.611   0.611   0.611   0.611   0.611   0.611   0.611   0.611   0.611   0.611   0.611   0.611   0.611   0.611   0.611   0.611   0.611   0.611   0.611   0.611   0.611   0.611   0.611   0.611   0.611   0.611   0.611   0.611   0.611   0.611   0.611   0.611   0.611   0.611   0.611   0.611   0.611   0.611   0.611   0.611   0.611
   242.19    0.611   0.611   0.611   0.611   0.611   0.611   0.611   0.611   0.611   0.611   0.611   0.611   0.611   0.611   0.611   0.611   0.611   0.611   0.611   0.611   0.611   0.611   0.611   0.611   0.611   0.611   0.611   0.611   0.611   0.611   0.611   0.611   0.611   0.611   0.611   0.611   0.611   0.611   0.611   0.611   0.611
   231.88    0.611   0.611   0.611   0.611   0.611   0.611   0.611   0.611   0.611   0.611   0.611   0.611   0.611   0.611   0.611   0.611   0.611   0.611   0.611   0.611   0.611   0.611   0.611   0.611   0.611   0.611   0.611   0.611   0.611   0.611   0.611   0.611   0.611   0.611   0.611   0.611   0.611   0.611   0.611   0.611   0.611
   221.56    0.611   0.611   0.611   0.611   0.611   0.611   0.611   0.611   0.611   0.611   0.611   0.611   0.611   0.611   0.611   0.611   0.611   0.611   0.611   0.611   0.611   0.611   0.611   0.611   0.611   0.611   0.611   0.611   0.611   0.611   0.611   0.611   0.611   0.611   0.611   0.611   0.611   0.611   0.611   0.611   0.611
   211.25    0.611   0.611   0.611   0.611   0.611   0.611   0.611   0.611   0.611   0.611   0.611   0.611   0.611   0.611   0.611   0.611   0.611   0.611   0.611   0.611   0.611   0.611   0.611   0.611   0.611   0.611   0.611   0.611   0.611   0.611   0.611   0.611   0.611   0.611   0.611   0.611   0.611   0.611   0.611   0.611   0.611
   200.94    0.611   0.611   0.611   0.611   0.611   0.611   0.611   0.611   0.611   0.611   0.611   0.611   0.611   0.611   0.611   0.611   0.611   0.611   0.611   0.611   0.611   0.611   0.611   0.611   0.611   0.611   0.611   0.611   0.611   0.611   0.611   0.611   0.611   0.611   0.611   0.611   0.611   0.611   0.611   0.611   0.611
   190.62    0.611   0.611   0.611   0.611   0.611   0.611   0.611   0.611   0.611   0.611   0.611   0.611   0.611   0.611   0.611   0.611   0.611   0.611   0.611   0.611   0.611   0.611   0.611   0.611   0.611   0.611   0.611   0.611   0.611   0.611   0.611   0.611   0.611   0.611   0.611   0.611   0.611   0.611   0.611   0.611   0.611
   180.31    0.611   0.611   0.611   0.611   0.611   0.611   0.611   0.611   0.611   0.611   0.611   0.611   0.611   0.611   0.611   0.611   0.611   0.611   0.611   0.611   0.611   0.611   0.611   0.611   0.611   0.611   0.611   0.611   0.611   0.611   0.611   0.611   0.611   0.611   0.611   0.611   0.611   0.611   0.611   0.611   0.611
   170.00    0.611   0.611   0.611   0.611   0.611   0.611   0.611   0.611   0.611   0.611   0.611   0.611   0.611   0.611   0.611   0.611   0.611   0.611   0.611   0.611   0.611   0.611   0.611   0.611   0.611   0.611   0.611   0.611   0.611   0.611   0.611   0.611   0.611   0.611   0.611   0.611   0.611   0.611   0.611   0.611   0.611
   159.69    0.611   0.611   0.611   0.611   0.611   0.611   0.611   0.611   0.611   0.611   0.611   0.611   0.611   0.611   0.611   0.611   0.611   0.611   0.611   0.611   0.611   0.611   0.611   0.611   0.611   0.611   0.611   0.611   0.611   0.611   0.611   0.611   0.611   0.611   0.611   0.611   0.611   0.611   0.611   0.611   0.611
   149.38    0.611   0.611   0.611   0.611   0.611   0.611   0.611   0.611   0.611   0.611   0.611   0.611   0.611   0.611   0.611   0.611   0.611   0.611   0.611   0.611   0.611   0.611   0.611   0.611   0.611   0.611   0.611   0.611   0.611   0.611   0.611   0.611   0.611   0.611   0.611   0.611   0.611   0.611   0.611   0.611   0.611
   139.06    0.611   0.611   0.611   0.611   0.611   0.611   0.611   0.611   0.611   0.611   0.611   0.611   0.611   0.611   0.611   0.611   0.611   0.611   0.611   0.611   0.611   0.611   0.611   0.611   0.611   0.611   0.611   0.611   0.611   0.611   0.611   0.611   0.611   0.611   0.611   0.611   0.611   0.611   0.611   0.611   0.611
   128.75    0.611   0.611   0.611   0.611   0.611   0.611   0.611   0.611   0.611   0.611   0.611   0.611   0.611   0.611   0.611   0.611   0.611   0.611   0.611   0.611   0.611   0.611   0.611   0.611   0.611   0.611   0.611   0.611   0.611   0.611   0.611   0.611   0.611   0.611   0.611   0.611   0.611   0.611   0.611   0.611   0.611
   118.44    0.611   0.611   0.611   0.611   0.611   0.611   0.611   0.611   0.611   0.611   0.611   0.611   0.611   0.611   0.611   0.611   0.611   0.611   0.611   0.611   0.611   0.611   0.611   0.611   0.611   0.611   0.611   0.611   0.611   0.611   0.611   0.611   0.611   0.611   0.611   0.611   0.611   0.611   0.611   0.611   0.611
   108.12    0.611   0.611   0.611   0.611   0.611   0.611   0.611   0.611   0.611   0.611   0.611   0.611   0.611   0.611   0.611   0.611   0.611   0.611   0.611   0.611   0.611   0.611   0.611   0.611   0.611   0.611   0.611   0.611   0.611   0.611   0.611   0.611   0.611   0.611   0.611   0.611   0.611   0.611   0.611   0.611   0.611
    97.81    0.611   0.611   0.611   0.611   0.611   0.611   0.611   0.611   0.611   0.611   0.611   0.611   0.611   0.611   0.611   0.611   0.611   0.611   0.611   0.611   0.611   0.611   0.611   0.611   0.611   0.611   0.611   0.611   0.611   0.611   0.611   0.611   0.611   0.611   0.611   0.611   0.611   0.611   0.611   0.611   0.611
    87.50    0.611   0.611   0.611   0.611   0.611   0.611   0.611   0.611   0.611   0.611   0.611   0.611   0.611   0.611   0.611   0.611   0.611   0.611   0.611   0.611   0.611   0.611   0.611   0.611   0.611   0.611   0.611   0.611   0.611   0.611   0.611   0.611   0.611   0.611   0.611   0.611   0.611   0.611   0.611   0.611   0.611
    77.19    0.611   0.611   0.611   0.611   0.611   0.611   0.611   0.611   0.611   0.611   0.611   0.611   0.611   0.611   0.611   0.611   0.611   0.611   0.611   0.611   0.611   0.611   0.611   0.611   0.611   0.611   0.611   0.611   0.611   0.611   0.611   0.611   0.611   0.611   0.611   0.611   0.611   0.611   0.611   0.611   0.611
    66.88    0.611   0.611   0.611   0.611   0.611   0.611   0.611   0.611   0.611   0.611   0.611   0.611   0.611   0.611   0.611   0.611   0.611   0.611   0.611   0.611   0.611   0.611   0.611   0.611   0.611   0.611   0.611   0.611   0.611   0.611   0.611   0.611   0.611   0.611   0.611   0.611   0.611   0.611   0.611   0.611   0.611
    56.56    0.611   0.611   0.611   0.611   0.611   0.611   0.611   0.611   0.611   0.611   0.611   0.611   0.611   0.611   0.611   0.611   0.611   0.611   0.611   0.611   0.611   0.611   0.611   0.611   0.611   0.611   0.611   0.611   0.611   0.611   0.611   0.611   0.611   0.611   0.611   0.611   0.611   0.611   0.611   0.611   0.611
    46.25    0.611   0.611   0.611   0.611   0.611   0.611   0.611   0.611   0.611   0.611   0.611   0.611   0.611   0.611   0.611   0.611   0.611   0.611   0.611   0.611   0.611   0.611   0.611   0.611   0.611   0.611   0.611   0.611   0.611   0.611   0.611   0.611   0.611   0.611   0.611   0.611   0.611   0.611   0.611   0.611   0.611
    35.94    0.611   0.611   0.611   0.611   0.611   0.611   0.611   0.611   0.611   0.611   0.611   0.611   0.611   0.611   0.611   0.611   0.611   0.611   0.611   0.611   0.611   0.611   0.611   0.611   0.611   0.611   0.611   0.611   0.611   0.611   0.611   0.611   0.611   0.611   0.611   0.611   0.611   0.611   0.611   0.611   0.611
    25.62    0.611   0.611   0.611   0.611   0.611   0.611   0.611   0.611   0.611   0.611   0.611   0.611   0.611   0.611   0.611   0.611   0.611   0.611   0.611   0.611   0.611   0.611   0.611   0.611   0.611   0.611   0.611   0.611   0.611   0.611   0.611   0.611   0.611   0.611   0.611   0.611   0.611   0.611   0.611   0.611   0.611
    15.31    0.611   0.611   0.611   0.611   0.611   0.611   0.611   0.611   0.611   0.611   0.611   0.611   0.611   0.611   0.611   0.611   0.611   0.611   0.611   0.611   0.611   0.611   0.611   0.611   0.611   0.611   0.611   0.611   0.611   0.611   0.611   0.611   0.611   0.611   0.611   0.611   0.611   0.611   0.611   0.611   0.611
     5.00    0.611   0.611   0.611   0.611   0.611   0.611   0.611   0.611   0.611   0.611   0.611   0.611   0.611   0.611   0.611   0.611   0.611   0.611   0.611   0.611   0.611   0.611   0.611   0.611   0.611   0.611   0.611   0.611   0.611   0.611   0.611   0.611   0.611   0.611   0.611   0.611   0.611   0.611   0.611   0.611   0.611

   Height   Standard deviation at grid points for the w component:
   335.00    0.359   0.359   0.359   0.359   0.359   0.359   0.359   0.359   0.359   0.359   0.359   0.359   0.359   0.359   0.359   0.359   0.359   0.359   0.359   0.359   0.359   0.359   0.359   0.359   0.359   0.359   0.359   0.359   0.359   0.359   0.359   0.359   0.359   0.359   0.359   0.359   0.359   0.359   0.359   0.359   0.359
   324.69    0.359   0.359   0.359   0.359   0.359   0.359   0.359   0.359   0.359   0.359   0.359   0.359   0.359   0.359   0.359   0.359   0.359   0.359   0.359   0.359   0.359   0.359   0.359   0.359   0.359   0.359   0.359   0.359   0.359   0.359   0.359   0.359   0.359   0.359   0.359   0.359   0.359   0.359   0.359   0.359   0.359
   314.38    0.359   0.359   0.359   0.359   0.359   0.359   0.359   0.359   0.359   0.359   0.359   0.359   0.359   0.359   0.359   0.359   0.359   0.359   0.359   0.359   0.359   0.359   0.359   0.359   0.359   0.359   0.359   0.359   0.359   0.359   0.359   0.359   0.359   0.359   0.359   0.359   0.359   0.359   0.359   0.359   0.359
   304.06    0.359   0.359   0.359   0.359   0.359   0.359   0.359   0.359   0.359   0.359   0.359   0.359   0.359   0.359   0.359   0.359   0.359   0.359   0.359   0.359   0.359   0.359   0.359   0.359   0.359   0.359   0.359   0.359   0.359   0.359   0.359   0.359   0.359   0.359   0.359   0.359   0.359   0.359   0.359   0.359   0.359
   293.75    0.359   0.359   0.359   0.359   0.359   0.359   0.359   0.359   0.359   0.359   0.359   0.359   0.359   0.359   0.359   0.359   0.359   0.359   0.359   0.359   0.359   0.359   0.359   0.359   0.359   0.359   0.359   0.359   0.359   0.359   0.359   0.359   0.359   0.359   0.359   0.359   0.359   0.359   0.359   0.359   0.359
   283.44    0.359   0.359   0.359   0.359   0.359   0.359   0.359   0.359   0.359   0.359   0.359   0.359   0.359   0.359   0.359   0.359   0.359   0.359   0.359   0.359   0.359   0.359   0.359   0.359   0.359   0.359   0.359   0.359   0.359   0.359   0.359   0.359   0.359   0.359   0.359   0.359   0.359   0.359   0.359   0.359   0.359
   273.12    0.359   0.359   0.359   0.359   0.359   0.359   0.359   0.359   0.359   0.359   0.359   0.359   0.359   0.359   0.359   0.359   0.359   0.359   0.359   0.359   0.359   0.359   0.359   0.359   0.359   0.359   0.359   0.359   0.359   0.359   0.359   0.359   0.359   0.359   0.359   0.359   0.359   0.359   0.359   0.359   0.359
   262.81    0.359   0.359   0.359   0.359   0.359   0.359   0.359   0.359   0.359   0.359   0.359   0.359   0.359   0.359   0.359   0.359   0.359   0.359   0.359   0.359   0.359   0.359   0.359   0.359   0.359   0.359   0.359   0.359   0.359   0.359   0.359   0.359   0.359   0.359   0.359   0.359   0.359   0.359   0.359   0.359   0.359
   252.50    0.359   0.359   0.359   0.359   0.359   0.359   0.359   0.359   0.359   0.359   0.359   0.359   0.359   0.359   0.359   0.359   0.359   0.359   0.359   0.359   0.359   0.359   0.359   0.359   0.359   0.359   0.359   0.359   0.359   0.359   0.359   0.359   0.359   0.359   0.359   0.359   0.359   0.359   0.359   0.359   0.359
   242.19    0.359   0.359   0.359   0.359   0.359   0.359   0.359   0.359   0.359   0.359   0.359   0.359   0.359   0.359   0.359   0.359   0.359   0.359   0.359   0.359   0.359   0.359   0.359   0.359   0.359   0.359   0.359   0.359   0.359   0.359   0.359   0.359   0.359   0.359   0.359   0.359   0.359   0.359   0.359   0.359   0.359
   231.88    0.359   0.359   0.359   0.359   0.359   0.359   0.359   0.359   0.359   0.359   0.359   0.359   0.359   0.359   0.359   0.359   0.359   0.359   0.359   0.359   0.359   0.359   0.359   0.359   0.359   0.359   0.359   0.359   0.359   0.359   0.359   0.359   0.359   0.359   0.359   0.359   0.359   0.359   0.359   0.359   0.359
   221.56    0.359   0.359   0.359   0.359   0.359   0.359   0.359   0.359   0.359   0.359   0.359   0.359   0.359   0.359   0.359   0.359   0.359   0.359   0.359   0.359   0.359   0.359   0.359   0.359   0.359   0.359   0.359   0.359   0.359   0.359   0.359   0.359   0.359   0.359   0.359   0.359   0.359   0.359   0.359   0.359   0.359
   211.25    0.359   0.359   0.359   0.359   0.359   0.359   0.359   0.359   0.359   0.359   0.359   0.359   0.359   0.359   0.359   0.359   0.359   0.359   0.359   0.359   0.359   0.359   0.359   0.359   0.359   0.359   0.359   0.359   0.359   0.359   0.359   0.359   0.359   0.359   0.359   0.359   0.359   0.359   0.359   0.359   0.359
   200.94    0.359   0.359   0.359   0.359   0.359   0.359   0.359   0.359   0.359   0.359   0.359   0.359   0.359   0.359   0.359   0.359   0.359   0.359   0.359   0.359   0.359   0.359   0.359   0.359   0.359   0.359   0.359   0.359   0.359   0.359   0.359   0.359   0.359   0.359   0.359   0.359   0.359   0.359   0.359   0.359   0.359
   190.62    0.359   0.359   0.359   0.359   0.359   0.359   0.359   0.359   0.359   0.359   0.359   0.359   0.359   0.359   0.359   0.359   0.359   0.359   0.359   0.359   0.359   0.359   0.359   0.359   0.359   0.359   0.359   0.359   0.359   0.359   0.359   0.359   0.359   0.359   0.359   0.359   0.359   0.359   0.359   0.359   0.359
   180.31    0.359   0.359   0.359   0.359   0.359   0.359   0.359   0.359   0.359   0.359   0.359   0.359   0.359   0.359   0.359   0.359   0.359   0.359   0.359   0.359   0.359   0.359   0.359   0.359   0.359   0.359   0.359   0.359   0.359   0.359   0.359   0.359   0.359   0.359   0.359   0.359   0.359   0.359   0.359   0.359   0.359
   170.00    0.359   0.359   0.359   0.359   0.359   0.359   0.359   0.359   0.359   0.359   0.359   0.359   0.359   0.359   0.359   0.359   0.359   0.359   0.359   0.359   0.359   0.359   0.359   0.359   0.359   0.359   0.359   0.359   0.359   0.359   0.359   0.359   0.359   0.359   0.359   0.359   0.359   0.359   0.359   0.359   0.359
   159.69    0.359   0.359   0.359   0.359   0.359   0.359   0.359   0.359   0.359   0.359   0.359   0.359   0.359   0.359   0.359   0.359   0.359   0.359   0.359   0.359   0.359   0.359   0.359   0.359   0.359   0.359   0.359   0.359   0.359   0.359   0.359   0.359   0.359   0.359   0.359   0.359   0.359   0.359   0.359   0.359   0.359
   149.38    0.359   0.359   0.359   0.359   0.359   0.359   0.359   0.359   0.359   0.359   0.359   0.359   0.359   0.359   0.359   0.359   0.359   0.359   0.359   0.359   0.359   0.359   0.359   0.359   0.359   0.359   0.359   0.359   0.359   0.359   0.359   0.359   0.359   0.359   0.359   0.359   0.359   0.359   0.359   0.359   0.359
   139.06    0.359   0.359   0.359   0.359   0.359   0.359   0.359   0.359   0.359   0.359   0.359   0.359   0.359   0.359   0.359   0.359   0.359   0.359   0.359   0.359   0.359   0.359   0.359   0.359   0.359   0.359   0.359   0.359   0.359   0.359   0.359   0.359   0.359   0.359   0.359   0.359   0.359   0.359   0.359   0.359   0.359
   128.75    0.359   0.359   0.359   0.359   0.359   0.359   0.359   0.359   0.359   0.359   0.359   0.359   0.359   0.359   0.359   0.359   0.359   0.359   0.359   0.359   0.359   0.359   0.359   0.359   0.359   0.359   0.359   0.359   0.359   0.359   0.359   0.359   0.359   0.359   0.359   0.359   0.359   0.359   0.359   0.359   0.359
   118.44    0.359   0.359   0.359   0.359   0.359   0.359   0.359   0.359   0.359   0.359   0.359   0.359   0.359   0.359   0.359   0.359   0.359   0.359   0.359   0.359   0.359   0.359   0.359   0.359   0.359   0.359   0.359   0.359   0.359   0.359   0.359   0.359   0.359   0.359   0.359   0.359   0.359   0.359   0.359   0.359   0.359
   108.12    0.359   0.359   0.359   0.359   0.359   0.359   0.359   0.359   0.359   0.359   0.359   0.359   0.359   0.359   0.359   0.359   0.359   0.359   0.359   0.359   0.359   0.359   0.359   0.359   0.359   0.359   0.359   0.359   0.359   0.359   0.359   0.359   0.359   0.359   0.359   0.359   0.359   0.359   0.359   0.359   0.359
    97.81    0.359   0.359   0.359   0.359   0.359   0.359   0.359   0.359   0.359   0.359   0.359   0.359   0.359   0.359   0.359   0.359   0.359   0.359   0.359   0.359   0.359   0.359   0.359   0.359   0.359   0.359   0.359   0.359   0.359   0.359   0.359   0.359   0.359   0.359   0.359   0.359   0.359   0.359   0.359   0.359   0.359
    87.50    0.359   0.359   0.359   0.359   0.359   0.359   0.359   0.359   0.359   0.359   0.359   0.359   0.359   0.359   0.359   0.359   0.359   0.359   0.359   0.359   0.359   0.359   0.359   0.359   0.359   0.359   0.359   0.359   0.359   0.359   0.359   0.359   0.359   0.359   0.359   0.359   0.359   0.359   0.359   0.359   0.359
    77.19    0.359   0.359   0.359   0.359   0.359   0.359   0.359   0.359   0.359   0.359   0.359   0.359   0.359   0.359   0.359   0.359   0.359   0.359   0.359   0.359   0.359   0.359   0.359   0.359   0.359   0.359   0.359   0.359   0.359   0.359   0.359   0.359   0.359   0.359   0.359   0.359   0.359   0.359   0.359   0.359   0.359
    66.88    0.359   0.359   0.359   0.359   0.359   0.359   0.359   0.359   0.359   0.359   0.359   0.359   0.359   0.359   0.359   0.359   0.359   0.359   0.359   0.359   0.359   0.359   0.359   0.359   0.359   0.359   0.359   0.359   0.359   0.359   0.359   0.359   0.359   0.359   0.359   0.359   0.359   0.359   0.359   0.359   0.359
    56.56    0.359   0.359   0.359   0.359   0.359   0.359   0.359   0.359   0.359   0.359   0.359   0.359   0.359   0.359   0.359   0.359   0.359   0.359   0.359   0.359   0.359   0.359   0.359   0.359   0.359   0.359   0.359   0.359   0.359   0.359   0.359   0.359   0.359   0.359   0.359   0.359   0.359   0.359   0.359   0.359   0.359
    46.25    0.359   0.359   0.359   0.359   0.359   0.359   0.359   0.359   0.359   0.359   0.359   0.359   0.359   0.359   0.359   0.359   0.359   0.359   0.359   0.359   0.359   0.359   0.359   0.359   0.359   0.359   0.359   0.359   0.359   0.359   0.359   0.359   0.359   0.359   0.359   0.359   0.359   0.359   0.359   0.359   0.359
    35.94    0.359   0.359   0.359   0.359   0.359   0.359   0.359   0.359   0.359   0.359   0.359   0.359   0.359   0.359   0.359   0.359   0.359   0.359   0.359   0.359   0.359   0.359   0.359   0.359   0.359   0.359   0.359   0.359   0.359   0.359   0.359   0.359   0.359   0.359   0.359   0.359   0.359   0.359   0.359   0.359   0.359
    25.62    0.359   0.359   0.359   0.359   0.359   0.359   0.359   0.359   0.359   0.359   0.359   0.359   0.359   0.359   0.359   0.359   0.359   0.359   0.359   0.359   0.359   0.359   0.359   0.359   0.359   0.359   0.359   0.359   0.359   0.359   0.359   0.359   0.359   0.359   0.359   0.359   0.359   0.359   0.359   0.359   0.359
    15.31    0.359   0.359   0.359   0.359   0.359   0.359   0.359   0.359   0.359   0.359   0.359   0.359   0.359   0.359   0.359   0.359   0.359   0.359   0.359   0.359   0.359   0.359   0.359   0.359   0.359   0.359   0.359   0.359   0.359   0.359   0.359   0.359   0.359   0.359   0.359   0.359   0.359   0.359   0.359   0.359   0.359
     5.00    0.359   0.359   0.359   0.359   0.359   0.359   0.359   0.359   0.359   0.359   0.359   0.359   0.359   0.359   0.359   0.359   0.359   0.359   0.359   0.359   0.359   0.359   0.359   0.359   0.359   0.359   0.359   0.359   0.359   0.359   0.359   0.359   0.359   0.359   0.359   0.359   0.359   0.359   0.359   0.359   0.359

   Mean standard deviation across all grid points:
      u component:    0.768 m/s
      v component:    0.611 m/s
      w component:    0.359 m/s


U-component (X) statistics from the interpolated hub point:

   Mean =  16.1111 m/s
   TI   =   4.7780 %


Processing complete.  2.9375 CPU seconds used.
