
This summary file was generated by TurbSim (from OpenFAST-v3.5.3) on 07-Jan-2025 at 13:52:08.


Runtime Options:

   4683464  Random seed #1
    RANLUX  Type of random number generator
         F  Output binary HH turbulence parameters?
         T  Output formatted turbulence parameters?
         F  Output AeroDyn HH files?
         T  Output AeroDyn FF files?
         F  Output BLADED FF files?
         F  Output tower data?
         F  Output HAWC FF files?
         F  Output formatted FF files?
         T  Output coherent turbulence time step file?
 0 -  NONE  IEC turbulence models scaled to exact specified standard deviation


Turbine/Model Specifications:

        33  Vertical grid-point matrix dimension
        41  Horizontal grid-point matrix dimension
     0.500  Time step [seconds]
   660.000  Analysis time [seconds]
   660.000  Usable output time [seconds]
   170.000  Hub height [m]
   330.000  Grid height [m]
   405.000  Grid width [m]
     0.000  Vertical flow angle [degrees]
     0.000  Horizontal flow angle [degrees]


Meteorological Boundary Conditions:

    IECKAI  IEC Kaimal spectral model
         1  IEC standard: IEC 61400-1 Ed. 3: 2005
     5.000  Percent turbulence intensity, IEC 61400-1 Ed. 3: 2005
       NTM  IEC Normal Turbulence Model
       N/A  IEC Extreme Turbulence Model (ETM) "c" parameter [m/s]
       PL   Wind profile type
   170.000  Reference height [m]
     5.800  Reference wind speed [m/s]
       N/A  Jet height [m]
     0.060  Power law exponent
     0.030  Surface roughness length [m]


Non-IEC Meteorological Boundary Conditions:

       N/A  Site latitude [degrees]
       N/A  Gradient Richardson number
       N/A  Friction or shear velocity [m/s]
       N/A  Mixing layer depth [m]
       N/A  Mean hub u'w' Reynolds stress
       N/A  Mean hub u'v' Reynolds stress
       N/A  Mean hub v'w' Reynolds stress


Spatial Coherence Models:

       IEC  u-component coherence model
      NONE  v-component coherence model
      NONE  w-component coherence model
(   12.000, 0.353E-03)  u-component coherence parameters
                   N/A  v-component coherence parameters
                   N/A  w-component coherence parameters
       N/A  Coherence exponent


You have requested that the following file(s) be generated:

   1_Configuration/Inflow_files/TurbSim_input_temp.dat (formatted turbulence-parameter file)
   1_Configuration/Inflow_files/TurbSim_input_temp.bts (AeroDyn/TurbSim full-field wind file)


Turbulence Simulation Scaling Parameter Summary:

   Turbulence model used                            =  IEC Kaimal
   Turbulence characteristic                        =  User-specified
   IEC standard                                     =  IEC 61400-1 Ed. 3: 2005
   Mean wind speed at hub height                    =    5.800 m/s
   Characteristic value of standard deviation       =    0.290 m/s
   Turbulence scale                                 =   42.000 m
   u-component integral scale                       =  340.200 m
   Coherency scale                                  =  340.200 m
   Characteristic value of hub turbulence intensity =    5.000%
   Gradient Richardson number                       =    0.000

   Wind profile type                                =  Power law
   Power law exponent                               =    0.060
   Mean shear across rotor disk                     =    0.004 (m/s)/m
   Assumed rotor diameter                           =  330.000 m
   Surface roughness length                         =    0.030 m

   Nyquist frequency of turbulent wind field        =    1.000 Hz

   Number of time steps in the FFT                  =     1320
   Number of time steps output                      =     1320
   Number of points simulated                       =     1353


Mean Flow Angles:

   Vertical   =   0.0 degrees
   Horizontal =   0.0 degrees

Mean Wind Speed Profile:

   Height    Wind Speed   Horizontal Angle  Vertical Angle  U-comp (X)   V-comp (Y)   W-comp (Z)
     (m)        (m/s)         (degrees)       (degrees)       (m/s)        (m/s)        (m/s)   
   ------    ----------   ----------------  --------------  ----------   ----------   ----------
    335.0        6.04            0.00            0.00          6.04         0.00         0.00
    324.7        6.03            0.00            0.00          6.03         0.00         0.00
    314.4        6.02            0.00            0.00          6.02         0.00         0.00
    304.1        6.01            0.00            0.00          6.01         0.00         0.00
    293.8        5.99            0.00            0.00          5.99         0.00         0.00
    283.4        5.98            0.00            0.00          5.98         0.00         0.00
    273.1        5.97            0.00            0.00          5.97         0.00         0.00
    262.8        5.95            0.00            0.00          5.95         0.00         0.00
    252.5        5.94            0.00            0.00          5.94         0.00         0.00
    242.2        5.92            0.00            0.00          5.92         0.00         0.00
    231.9        5.91            0.00            0.00          5.91         0.00         0.00
    221.6        5.89            0.00            0.00          5.89         0.00         0.00
    211.2        5.88            0.00            0.00          5.88         0.00         0.00
    200.9        5.86            0.00            0.00          5.86         0.00         0.00
    190.6        5.84            0.00            0.00          5.84         0.00         0.00
    180.3        5.82            0.00            0.00          5.82         0.00         0.00
    170.0        5.80            0.00            0.00          5.80         0.00         0.00
    159.7        5.78            0.00            0.00          5.78         0.00         0.00
    149.4        5.76            0.00            0.00          5.76         0.00         0.00
    139.1        5.73            0.00            0.00          5.73         0.00         0.00
    128.8        5.70            0.00            0.00          5.70         0.00         0.00
    118.4        5.68            0.00            0.00          5.68         0.00         0.00
    108.1        5.64            0.00            0.00          5.64         0.00         0.00
     97.8        5.61            0.00            0.00          5.61         0.00         0.00
     87.5        5.57            0.00            0.00          5.57         0.00         0.00
     77.2        5.53            0.00            0.00          5.53         0.00         0.00
     66.9        5.48            0.00            0.00          5.48         0.00         0.00
     56.6        5.43            0.00            0.00          5.43         0.00         0.00
     46.2        5.36            0.00            0.00          5.36         0.00         0.00
     35.9        5.28            0.00            0.00          5.28         0.00         0.00
     25.6        5.18            0.00            0.00          5.18         0.00         0.00
     15.3        5.02            0.00            0.00          5.02         0.00         0.00
      5.0        4.69            0.00            0.00          4.69         0.00         0.00


Harvested Random Seeds after Generation of the Random Numbers:

     24891718 K 1
            0 K 2
