
This summary file was generated by TurbSim (from OpenFAST-v3.5.3) on 31-Dec-2024 at 15:52:53.


Runtime Options:

   4683464  Random seed #1
    RANLUX  Type of random number generator
         F  Output binary HH turbulence parameters?
         T  Output formatted turbulence parameters?
         F  Output AeroDyn HH files?
         T  Output AeroDyn FF files?
         F  Output BLADED FF files?
         F  Output tower data?
         F  Output HAWC FF files?
         F  Output formatted FF files?
         T  Output coherent turbulence time step file?
 0 -  NONE  IEC turbulence models scaled to exact specified standard deviation


Turbine/Model Specifications:

        33  Vertical grid-point matrix dimension
        41  Horizontal grid-point matrix dimension
     0.500  Time step [seconds]
   660.000  Analysis time [seconds]
   660.000  Usable output time [seconds]
   170.000  Hub height [m]
   330.000  Grid height [m]
   405.000  Grid width [m]
     0.000  Vertical flow angle [degrees]
     0.000  Horizontal flow angle [degrees]


Meteorological Boundary Conditions:

    IECKAI  IEC Kaimal spectral model
         1  IEC standard: IEC 61400-1 Ed. 3: 2005
     5.000  Percent turbulence intensity, IEC 61400-1 Ed. 3: 2005
       NTM  IEC Normal Turbulence Model
       N/A  IEC Extreme Turbulence Model (ETM) "c" parameter [m/s]
       PL   Wind profile type
   170.000  Reference height [m]
     5.000  Reference wind speed [m/s]
       N/A  Jet height [m]
     0.200  Power law exponent
     0.030  Surface roughness length [m]


Non-IEC Meteorological Boundary Conditions:

       N/A  Site latitude [degrees]
       N/A  Gradient Richardson number
       N/A  Friction or shear velocity [m/s]
       N/A  Mixing layer depth [m]
       N/A  Mean hub u'w' Reynolds stress
       N/A  Mean hub u'v' Reynolds stress
       N/A  Mean hub v'w' Reynolds stress


Spatial Coherence Models:

       IEC  u-component coherence model
      NONE  v-component coherence model
      NONE  w-component coherence model
(   12.000, 0.353E-03)  u-component coherence parameters
                   N/A  v-component coherence parameters
                   N/A  w-component coherence parameters
       N/A  Coherence exponent


You have requested that the following file(s) be generated:

   1_Configuration/Inflow_files/TurbSim_input_temp.dat (formatted turbulence-parameter file)
   1_Configuration/Inflow_files/TurbSim_input_temp.bts (AeroDyn/TurbSim full-field wind file)


Turbulence Simulation Scaling Parameter Summary:

   Turbulence model used                            =  IEC Kaimal
   Turbulence characteristic                        =  User-specified
   IEC standard                                     =  IEC 61400-1 Ed. 3: 2005
   Mean wind speed at hub height                    =    5.000 m/s
   Characteristic value of standard deviation       =    0.250 m/s
   Turbulence scale                                 =   42.000 m
   u-component integral scale                       =  340.200 m
   Coherency scale                                  =  340.200 m
   Characteristic value of hub turbulence intensity =    5.000%
   Gradient Richardson number                       =    0.000

   Wind profile type                                =  Power law
   Power law exponent                               =    0.200
   Mean shear across rotor disk                     =    0.010 (m/s)/m
   Assumed rotor diameter                           =  330.000 m
   Surface roughness length                         =    0.030 m

   Nyquist frequency of turbulent wind field        =    1.000 Hz

   Number of time steps in the FFT                  =     1320
   Number of time steps output                      =     1320
   Number of points simulated                       =     1353


Mean Flow Angles:

   Vertical   =   0.0 degrees
   Horizontal =   0.0 degrees

Mean Wind Speed Profile:

   Height    Wind Speed   Horizontal Angle  Vertical Angle  U-comp (X)   V-comp (Y)   W-comp (Z)
     (m)        (m/s)         (degrees)       (degrees)       (m/s)        (m/s)        (m/s)   
   ------    ----------   ----------------  --------------  ----------   ----------   ----------
    335.0        5.73            0.00            0.00          5.73         0.00         0.00
    324.7        5.69            0.00            0.00          5.69         0.00         0.00
    314.4        5.65            0.00            0.00          5.65         0.00         0.00
    304.1        5.62            0.00            0.00          5.62         0.00         0.00
    293.8        5.58            0.00            0.00          5.58         0.00         0.00
    283.4        5.54            0.00            0.00          5.54         0.00         0.00
    273.1        5.50            0.00            0.00          5.50         0.00         0.00
    262.8        5.46            0.00            0.00          5.46         0.00         0.00
    252.5        5.41            0.00            0.00          5.41         0.00         0.00
    242.2        5.37            0.00            0.00          5.37         0.00         0.00
    231.9        5.32            0.00            0.00          5.32         0.00         0.00
    221.6        5.27            0.00            0.00          5.27         0.00         0.00
    211.2        5.22            0.00            0.00          5.22         0.00         0.00
    200.9        5.17            0.00            0.00          5.17         0.00         0.00
    190.6        5.12            0.00            0.00          5.12         0.00         0.00
    180.3        5.06            0.00            0.00          5.06         0.00         0.00
    170.0        5.00            0.00            0.00          5.00         0.00         0.00
    159.7        4.94            0.00            0.00          4.94         0.00         0.00
    149.4        4.87            0.00            0.00          4.87         0.00         0.00
    139.1        4.80            0.00            0.00          4.80         0.00         0.00
    128.8        4.73            0.00            0.00          4.73         0.00         0.00
    118.4        4.65            0.00            0.00          4.65         0.00         0.00
    108.1        4.57            0.00            0.00          4.57         0.00         0.00
     97.8        4.48            0.00            0.00          4.48         0.00         0.00
     87.5        4.38            0.00            0.00          4.38         0.00         0.00
     77.2        4.27            0.00            0.00          4.27         0.00         0.00
     66.9        4.15            0.00            0.00          4.15         0.00         0.00
     56.6        4.01            0.00            0.00          4.01         0.00         0.00
     46.2        3.85            0.00            0.00          3.85         0.00         0.00
     35.9        3.66            0.00            0.00          3.66         0.00         0.00
     25.6        3.42            0.00            0.00          3.42         0.00         0.00
     15.3        3.09            0.00            0.00          3.09         0.00         0.00
      5.0        2.47            0.00            0.00          2.47         0.00         0.00


Harvested Random Seeds after Generation of the Random Numbers:

     24891718 K 1
            0 K 2


Hub-Height Simulated Turbulence Statistical Summary:

   Type of Wind        Min (m/s)   Mean (m/s)    Max (m/s)  Sigma (m/s)       TI (%)
   ----------------    ---------   ----------    ---------  -----------       ------
   Longitudinal (u)         4.38         5.00         5.74        0.257        5.134
   Lateral (v)             -0.50        -0.00         0.57        0.189        3.790
   Vertical (w)            -0.43         0.00         0.46        0.118        2.357
   U component              4.38         5.00         5.74        0.257        5.134
   V component             -0.50        -0.00         0.57        0.189        3.790
   W component             -0.43         0.00         0.46        0.118        2.357
   Horizontal (U&V)         4.38         5.00         5.75        0.257        5.145
   Total                    4.38         5.00         5.75        0.258        5.146

                       Min Reynolds     Mean Reynolds    Max Reynolds    Correlation
   Product             Stress (m/s)^2   Stress (m/s)^2   Stress (m/s)^2  Coefficient
   ----------------    --------------   --------------   --------------  -----------
   u'w'                     -0.120             0.006             0.223         0.188
   u'v'                     -0.236             0.010             0.280         0.203
   v'w'                     -0.111             0.001             0.150         0.049


   Friction Velocity (Ustar)  =      0.075 m/s
   Maximum Instantaneous TKE  =      0.331 (m/s)^2
   Maximum Instantaneous CTKE =      0.150 (m/s)^2


Grid Point Variance Summary:

   Y-coord -202.50 -192.38 -182.25 -172.12 -162.00 -151.88 -141.75 -131.62 -121.50 -111.38 -101.25  -91.12  -81.00  -70.88  -60.75  -50.62  -40.50  -30.38  -20.25  -10.12    0.00   10.12   20.25   30.38   40.50   50.62   60.75   70.88   81.00   91.12  101.25  111.38  121.50  131.62  141.75  151.88  162.00  172.12  182.25  192.38  202.50

   Height   Standard deviation at grid points for the u component:
   335.00    0.226   0.203   0.181   0.186   0.190   0.202   0.188   0.221   0.218   0.232   0.251   0.195   0.204   0.191   0.187   0.190   0.202   0.205   0.226   0.248   0.246   0.243   0.258   0.281   0.313   0.330   0.316   0.359   0.363   0.362   0.363   0.354   0.310   0.312   0.321   0.269   0.252   0.252   0.224   0.208   0.223
   324.69    0.223   0.220   0.181   0.161   0.183   0.190   0.170   0.210   0.199   0.230   0.247   0.224   0.224   0.200   0.190   0.178   0.210   0.207   0.209   0.213   0.228   0.255   0.256   0.308   0.289   0.310   0.325   0.344   0.345   0.356   0.360   0.358   0.317   0.305   0.295   0.255   0.246   0.250   0.232   0.217   0.245
   314.38    0.220   0.200   0.167   0.175   0.191   0.207   0.216   0.232   0.222   0.267   0.232   0.244   0.242   0.235   0.199   0.192   0.210   0.203   0.225   0.236   0.250   0.259   0.283   0.321   0.331   0.318   0.320   0.339   0.346   0.353   0.330   0.302   0.282   0.298   0.287   0.275   0.262   0.241   0.249   0.265   0.256
   304.06    0.191   0.183   0.183   0.160   0.189   0.206   0.229   0.226   0.240   0.250   0.235   0.256   0.229   0.228   0.179   0.227   0.226   0.225   0.241   0.231   0.268   0.273   0.260   0.291   0.306   0.322   0.302   0.301   0.302   0.298   0.289   0.266   0.245   0.260   0.247   0.288   0.282   0.241   0.277   0.303   0.292
   293.75    0.184   0.181   0.161   0.178   0.195   0.200   0.215   0.214   0.214   0.230   0.250   0.227   0.213   0.208   0.199   0.222   0.209   0.214   0.228   0.255   0.278   0.267   0.262   0.296   0.300   0.311   0.292   0.290   0.282   0.269   0.276   0.253   0.245   0.248   0.263   0.271   0.275   0.266   0.268   0.255   0.284
   283.44    0.189   0.198   0.167   0.203   0.220   0.211   0.219   0.232   0.245   0.217   0.238   0.229   0.222   0.208   0.206   0.227   0.246   0.229   0.230   0.248   0.267   0.250   0.279   0.291   0.263   0.271   0.272   0.297   0.274   0.288   0.284   0.289   0.264   0.220   0.236   0.243   0.276   0.289   0.291   0.270   0.254
   273.12    0.195   0.187   0.189   0.219   0.237   0.231   0.224   0.219   0.242   0.240   0.244   0.241   0.241   0.251   0.239   0.245   0.243   0.234   0.238   0.258   0.243   0.254   0.256   0.271   0.249   0.268   0.256   0.263   0.254   0.271   0.275   0.281   0.265   0.239   0.221   0.221   0.251   0.269   0.265   0.247   0.242
   262.81    0.195   0.192   0.174   0.193   0.222   0.250   0.244   0.256   0.254   0.219   0.243   0.248   0.263   0.268   0.251   0.247   0.236   0.241   0.215   0.239   0.233   0.254   0.271   0.258   0.231   0.243   0.238   0.258   0.222   0.241   0.253   0.259   0.245   0.241   0.224   0.204   0.224   0.244   0.253   0.218   0.199
   252.50    0.218   0.215   0.178   0.194   0.201   0.246   0.254   0.240   0.243   0.222   0.216   0.249   0.246   0.263   0.254   0.277   0.250   0.246   0.240   0.242   0.213   0.242   0.266   0.236   0.249   0.266   0.256   0.253   0.236   0.237   0.232   0.228   0.239   0.234   0.241   0.204   0.235   0.217   0.237   0.231   0.223
   242.19    0.211   0.203   0.189   0.203   0.232   0.266   0.274   0.281   0.253   0.253   0.267   0.260   0.275   0.241   0.269   0.290   0.275   0.271   0.258   0.247   0.234   0.229   0.234   0.238   0.228   0.231   0.231   0.242   0.221   0.210   0.210   0.222   0.208   0.243   0.249   0.239   0.235   0.239   0.213   0.211   0.195
   231.88    0.218   0.216   0.196   0.200   0.218   0.250   0.274   0.262   0.273   0.291   0.264   0.277   0.269   0.274   0.295   0.293   0.272   0.269   0.249   0.257   0.240   0.232   0.205   0.220   0.221   0.217   0.203   0.225   0.218   0.229   0.237   0.235   0.238   0.275   0.265   0.240   0.229   0.235   0.211   0.197   0.205
   221.56    0.229   0.212   0.202   0.196   0.241   0.238   0.258   0.275   0.277   0.284   0.253   0.238   0.263   0.305   0.309   0.293   0.249   0.275   0.267   0.234   0.232   0.228   0.207   0.210   0.228   0.223   0.216   0.227   0.234   0.231   0.244   0.252   0.277   0.258   0.260   0.226   0.225   0.213   0.207   0.218   0.209
   211.25    0.216   0.231   0.227   0.240   0.228   0.247   0.260   0.268   0.276   0.261   0.257   0.259   0.280   0.307   0.312   0.302   0.278   0.265   0.287   0.256   0.240   0.250   0.218   0.218   0.219   0.218   0.199   0.214   0.224   0.230   0.205   0.233   0.242   0.242   0.243   0.237   0.219   0.227   0.207   0.206   0.195
   200.94    0.209   0.224   0.260   0.249   0.222   0.237   0.282   0.257   0.277   0.271   0.266   0.277   0.273   0.275   0.261   0.289   0.286   0.281   0.281   0.258   0.242   0.245   0.255   0.231   0.211   0.210   0.203   0.201   0.193   0.201   0.197   0.217   0.215   0.204   0.211   0.212   0.228   0.204   0.224   0.213   0.198
   190.62    0.200   0.241   0.274   0.270   0.244   0.246   0.277   0.272   0.250   0.271   0.278   0.242   0.270   0.269   0.256   0.277   0.291   0.267   0.272   0.273   0.246   0.229   0.232   0.233   0.190   0.197   0.201   0.191   0.209   0.210   0.232   0.206   0.197   0.198   0.189   0.187   0.199   0.204   0.204   0.199   0.200
   180.31    0.219   0.229   0.245   0.248   0.258   0.246   0.259   0.251   0.270   0.270   0.232   0.253   0.266   0.283   0.248   0.260   0.260   0.262   0.274   0.257   0.261   0.250   0.230   0.233   0.195   0.172   0.212   0.214   0.205   0.222   0.250   0.233   0.217   0.205   0.219   0.204   0.192   0.196   0.176   0.194   0.193
   170.00    0.221   0.243   0.245   0.224   0.234   0.239   0.226   0.243   0.228   0.259   0.242   0.257   0.271   0.303   0.289   0.262   0.236   0.222   0.247   0.262   0.257   0.214   0.225   0.214   0.212   0.198   0.198   0.202   0.209   0.229   0.219   0.212   0.197   0.207   0.195   0.186   0.187   0.195   0.172   0.172   0.220
   159.69    0.235   0.253   0.198   0.216   0.235   0.221   0.215   0.217   0.249   0.248   0.262   0.266   0.247   0.286   0.271   0.266   0.267   0.239   0.253   0.290   0.253   0.223   0.225   0.195   0.224   0.206   0.198   0.212   0.217   0.224   0.205   0.183   0.176   0.185   0.190   0.190   0.185   0.190   0.189   0.199   0.216
   149.38    0.221   0.226   0.238   0.211   0.207   0.212   0.215   0.190   0.223   0.238   0.238   0.242   0.273   0.287   0.286   0.244   0.234   0.218   0.276   0.264   0.266   0.236   0.216   0.185   0.186   0.192   0.200   0.213   0.207   0.193   0.191   0.185   0.167   0.174   0.184   0.174   0.174   0.185   0.208   0.225   0.245
   139.06    0.217   0.226   0.267   0.231   0.226   0.203   0.193   0.207   0.212   0.222   0.238   0.227   0.255   0.277   0.267   0.259   0.268   0.243   0.251   0.281   0.241   0.251   0.220   0.204   0.214   0.195   0.230   0.210   0.201   0.185   0.193   0.197   0.170   0.165   0.186   0.157   0.188   0.210   0.206   0.246   0.228
   128.75    0.222   0.224   0.243   0.229   0.235   0.218   0.212   0.204   0.194   0.237   0.244   0.281   0.282   0.273   0.268   0.263   0.244   0.239   0.230   0.239   0.234   0.247   0.218   0.210   0.213   0.215   0.228   0.230   0.221   0.195   0.185   0.171   0.181   0.168   0.163   0.195   0.184   0.221   0.242   0.242   0.269
   118.44    0.243   0.233   0.232   0.218   0.197   0.187   0.192   0.193   0.201   0.217   0.261   0.287   0.313   0.291   0.275   0.240   0.254   0.231   0.240   0.219   0.205   0.212   0.222   0.225   0.215   0.209   0.208   0.198   0.178   0.183   0.179   0.185   0.189   0.170   0.211   0.192   0.193   0.214   0.257   0.264   0.247
   108.12    0.218   0.225   0.229   0.206   0.222   0.223   0.197   0.206   0.187   0.255   0.295   0.312   0.292   0.315   0.302   0.255   0.251   0.208   0.212   0.216   0.213   0.199   0.233   0.239   0.204   0.216   0.201   0.187   0.183   0.166   0.170   0.181   0.200   0.179   0.199   0.194   0.221   0.237   0.240   0.240   0.259
    97.81    0.215   0.221   0.214   0.221   0.220   0.217   0.233   0.201   0.204   0.232   0.275   0.312   0.306   0.317   0.306   0.268   0.233   0.234   0.199   0.201   0.188   0.210   0.225   0.228   0.236   0.212   0.217   0.180   0.173   0.167   0.184   0.197   0.178   0.176   0.194   0.219   0.211   0.235   0.228   0.208   0.212
    87.50    0.195   0.199   0.197   0.179   0.214   0.218   0.206   0.202   0.208   0.227   0.254   0.280   0.272   0.273   0.279   0.273   0.244   0.239   0.219   0.203   0.212   0.230   0.236   0.219   0.230   0.227   0.202   0.184   0.189   0.176   0.183   0.201   0.188   0.205   0.209   0.232   0.249   0.225   0.228   0.199   0.224
    77.19    0.168   0.204   0.227   0.196   0.227   0.209   0.225   0.219   0.209   0.252   0.239   0.274   0.309   0.284   0.257   0.269   0.230   0.213   0.204   0.233   0.215   0.220   0.242   0.213   0.219   0.216   0.220   0.208   0.239   0.227   0.196   0.222   0.214   0.205   0.240   0.250   0.270   0.263   0.217   0.219   0.239
    66.88    0.216   0.204   0.208   0.209   0.210   0.215   0.205   0.217   0.227   0.218   0.238   0.256   0.270   0.279   0.255   0.238   0.241   0.215   0.231   0.211   0.218   0.214   0.248   0.231   0.217   0.225   0.209   0.240   0.244   0.210   0.194   0.218   0.208   0.236   0.262   0.257   0.252   0.252   0.229   0.207   0.226
    56.56    0.228   0.214   0.191   0.214   0.196   0.200   0.204   0.207   0.225   0.210   0.221   0.229   0.205   0.228   0.241   0.216   0.195   0.188   0.217   0.206   0.232   0.264   0.248   0.231   0.238   0.221   0.219   0.215   0.213   0.190   0.219   0.200   0.212   0.213   0.230   0.243   0.214   0.241   0.239   0.227   0.250
    46.25    0.221   0.216   0.222   0.212   0.202   0.205   0.209   0.187   0.196   0.216   0.190   0.212   0.211   0.198   0.217   0.212   0.186   0.187   0.214   0.203   0.238   0.256   0.259   0.248   0.250   0.231   0.195   0.205   0.201   0.202   0.210   0.215   0.215   0.221   0.223   0.229   0.218   0.226   0.231   0.231   0.262
    35.94    0.231   0.210   0.207   0.204   0.219   0.164   0.187   0.204   0.181   0.193   0.220   0.235   0.212   0.216   0.212   0.219   0.210   0.187   0.214   0.203   0.242   0.237   0.238   0.256   0.247   0.246   0.220   0.215   0.213   0.192   0.225   0.207   0.201   0.205   0.195   0.192   0.213   0.216   0.211   0.223   0.245
    25.62    0.217   0.178   0.195   0.211   0.209   0.217   0.189   0.209   0.183   0.182   0.222   0.222   0.206   0.205   0.225   0.208   0.203   0.182   0.198   0.229   0.252   0.246   0.248   0.253   0.275   0.233   0.220   0.189   0.180   0.201   0.190   0.207   0.219   0.197   0.214   0.208   0.211   0.218   0.219   0.223   0.236
    15.31    0.215   0.214   0.212   0.198   0.215   0.200   0.198   0.191   0.207   0.205   0.218   0.213   0.222   0.205   0.207   0.207   0.169   0.196   0.188   0.217   0.231   0.243   0.268   0.273   0.241   0.241   0.211   0.176   0.149   0.165   0.183   0.178   0.204   0.203   0.195   0.162   0.190   0.198   0.209   0.240   0.207
     5.00    0.225   0.224   0.221   0.233   0.216   0.204   0.219   0.222   0.197   0.202   0.224   0.211   0.206   0.197   0.194   0.201   0.193   0.194   0.207   0.206   0.236   0.259   0.253   0.257   0.261   0.276   0.221   0.176   0.182   0.161   0.178   0.181   0.187   0.198   0.190   0.183   0.208   0.207   0.205   0.223   0.230

   Height   Standard deviation at grid points for the v component:
   335.00    0.189   0.189   0.189   0.189   0.189   0.189   0.189   0.189   0.189   0.189   0.189   0.189   0.189   0.189   0.189   0.189   0.189   0.189   0.189   0.189   0.189   0.189   0.189   0.189   0.189   0.189   0.189   0.189   0.189   0.189   0.189   0.189   0.189   0.189   0.189   0.189   0.189   0.189   0.189   0.189   0.189
   324.69    0.189   0.189   0.189   0.189   0.189   0.189   0.189   0.189   0.189   0.189   0.189   0.189   0.189   0.189   0.189   0.189   0.189   0.189   0.189   0.189   0.189   0.189   0.189   0.189   0.189   0.189   0.189   0.189   0.189   0.189   0.189   0.189   0.189   0.189   0.189   0.189   0.189   0.189   0.189   0.189   0.189
   314.38    0.189   0.189   0.189   0.189   0.189   0.189   0.189   0.189   0.189   0.189   0.189   0.189   0.189   0.189   0.189   0.189   0.189   0.189   0.189   0.189   0.189   0.189   0.189   0.189   0.189   0.189   0.189   0.189   0.189   0.189   0.189   0.189   0.189   0.189   0.189   0.189   0.189   0.189   0.189   0.189   0.189
   304.06    0.189   0.189   0.189   0.189   0.189   0.189   0.189   0.189   0.189   0.189   0.189   0.189   0.189   0.189   0.189   0.189   0.189   0.189   0.189   0.189   0.189   0.189   0.189   0.189   0.189   0.189   0.189   0.189   0.189   0.189   0.189   0.189   0.189   0.189   0.189   0.189   0.189   0.189   0.189   0.189   0.189
   293.75    0.189   0.189   0.189   0.189   0.189   0.189   0.189   0.189   0.189   0.189   0.189   0.189   0.189   0.189   0.189   0.189   0.189   0.189   0.189   0.189   0.189   0.189   0.189   0.189   0.189   0.189   0.189   0.189   0.189   0.189   0.189   0.189   0.189   0.189   0.189   0.189   0.189   0.189   0.189   0.189   0.189
   283.44    0.189   0.189   0.189   0.189   0.189   0.189   0.189   0.189   0.189   0.189   0.189   0.189   0.189   0.189   0.189   0.189   0.189   0.189   0.189   0.189   0.189   0.189   0.189   0.189   0.189   0.189   0.189   0.189   0.189   0.189   0.189   0.189   0.189   0.189   0.189   0.189   0.189   0.189   0.189   0.189   0.189
   273.12    0.189   0.189   0.189   0.189   0.189   0.189   0.189   0.189   0.189   0.189   0.189   0.189   0.189   0.189   0.189   0.189   0.189   0.189   0.189   0.189   0.189   0.189   0.189   0.189   0.189   0.189   0.189   0.189   0.189   0.189   0.189   0.189   0.189   0.189   0.189   0.189   0.189   0.189   0.189   0.189   0.189
   262.81    0.189   0.189   0.189   0.189   0.189   0.189   0.189   0.189   0.189   0.189   0.189   0.189   0.189   0.189   0.189   0.189   0.189   0.189   0.189   0.189   0.189   0.189   0.189   0.189   0.189   0.189   0.189   0.189   0.189   0.189   0.189   0.189   0.189   0.189   0.189   0.189   0.189   0.189   0.189   0.189   0.189
   252.50    0.189   0.189   0.189   0.189   0.189   0.189   0.189   0.189   0.189   0.189   0.189   0.189   0.189   0.189   0.189   0.189   0.189   0.189   0.189   0.189   0.189   0.189   0.189   0.189   0.189   0.189   0.189   0.189   0.189   0.189   0.189   0.189   0.189   0.189   0.189   0.189   0.189   0.189   0.189   0.189   0.189
   242.19    0.189   0.189   0.189   0.189   0.189   0.189   0.189   0.189   0.189   0.189   0.189   0.189   0.189   0.189   0.189   0.189   0.189   0.189   0.189   0.189   0.189   0.189   0.189   0.189   0.189   0.189   0.189   0.189   0.189   0.189   0.189   0.189   0.189   0.189   0.189   0.189   0.189   0.189   0.189   0.189   0.189
   231.88    0.189   0.189   0.189   0.189   0.189   0.189   0.189   0.189   0.189   0.189   0.189   0.189   0.189   0.189   0.189   0.189   0.189   0.189   0.189   0.189   0.189   0.189   0.189   0.189   0.189   0.189   0.189   0.189   0.189   0.189   0.189   0.189   0.189   0.189   0.189   0.189   0.189   0.189   0.189   0.189   0.189
   221.56    0.189   0.189   0.189   0.189   0.189   0.189   0.189   0.189   0.189   0.189   0.189   0.189   0.189   0.189   0.189   0.189   0.189   0.189   0.189   0.189   0.189   0.189   0.189   0.189   0.189   0.189   0.189   0.189   0.189   0.189   0.189   0.189   0.189   0.189   0.189   0.189   0.189   0.189   0.189   0.189   0.189
   211.25    0.189   0.189   0.189   0.189   0.189   0.189   0.189   0.189   0.189   0.189   0.189   0.189   0.189   0.189   0.189   0.189   0.189   0.189   0.189   0.189   0.189   0.189   0.189   0.189   0.189   0.189   0.189   0.189   0.189   0.189   0.189   0.189   0.189   0.189   0.189   0.189   0.189   0.189   0.189   0.189   0.189
   200.94    0.189   0.189   0.189   0.189   0.189   0.189   0.189   0.189   0.189   0.189   0.189   0.189   0.189   0.189   0.189   0.189   0.189   0.189   0.189   0.189   0.189   0.189   0.189   0.189   0.189   0.189   0.189   0.189   0.189   0.189   0.189   0.189   0.189   0.189   0.189   0.189   0.189   0.189   0.189   0.189   0.189
   190.62    0.189   0.189   0.189   0.189   0.189   0.189   0.189   0.189   0.189   0.189   0.189   0.189   0.189   0.189   0.189   0.189   0.189   0.189   0.189   0.189   0.189   0.189   0.189   0.189   0.189   0.189   0.189   0.189   0.189   0.189   0.189   0.189   0.189   0.189   0.189   0.189   0.189   0.189   0.189   0.189   0.189
   180.31    0.189   0.189   0.189   0.189   0.189   0.189   0.189   0.189   0.189   0.189   0.189   0.189   0.189   0.189   0.189   0.189   0.189   0.189   0.189   0.189   0.189   0.189   0.189   0.189   0.189   0.189   0.189   0.189   0.189   0.189   0.189   0.189   0.189   0.189   0.189   0.189   0.189   0.189   0.189   0.189   0.189
   170.00    0.189   0.189   0.189   0.189   0.189   0.189   0.189   0.189   0.189   0.189   0.189   0.189   0.189   0.189   0.189   0.189   0.189   0.189   0.189   0.189   0.189   0.189   0.189   0.189   0.189   0.189   0.189   0.189   0.189   0.189   0.189   0.189   0.189   0.189   0.189   0.189   0.189   0.189   0.189   0.189   0.189
   159.69    0.189   0.189   0.189   0.189   0.189   0.189   0.189   0.189   0.189   0.189   0.189   0.189   0.189   0.189   0.189   0.189   0.189   0.189   0.189   0.189   0.189   0.189   0.189   0.189   0.189   0.189   0.189   0.189   0.189   0.189   0.189   0.189   0.189   0.189   0.189   0.189   0.189   0.189   0.189   0.189   0.189
   149.38    0.189   0.189   0.189   0.189   0.189   0.189   0.189   0.189   0.189   0.189   0.189   0.189   0.189   0.189   0.189   0.189   0.189   0.189   0.189   0.189   0.189   0.189   0.189   0.189   0.189   0.189   0.189   0.189   0.189   0.189   0.189   0.189   0.189   0.189   0.189   0.189   0.189   0.189   0.189   0.189   0.189
   139.06    0.189   0.189   0.189   0.189   0.189   0.189   0.189   0.189   0.189   0.189   0.189   0.189   0.189   0.189   0.189   0.189   0.189   0.189   0.189   0.189   0.189   0.189   0.189   0.189   0.189   0.189   0.189   0.189   0.189   0.189   0.189   0.189   0.189   0.189   0.189   0.189   0.189   0.189   0.189   0.189   0.189
   128.75    0.189   0.189   0.189   0.189   0.189   0.189   0.189   0.189   0.189   0.189   0.189   0.189   0.189   0.189   0.189   0.189   0.189   0.189   0.189   0.189   0.189   0.189   0.189   0.189   0.189   0.189   0.189   0.189   0.189   0.189   0.189   0.189   0.189   0.189   0.189   0.189   0.189   0.189   0.189   0.189   0.189
   118.44    0.189   0.189   0.189   0.189   0.189   0.189   0.189   0.189   0.189   0.189   0.189   0.189   0.189   0.189   0.189   0.189   0.189   0.189   0.189   0.189   0.189   0.189   0.189   0.189   0.189   0.189   0.189   0.189   0.189   0.189   0.189   0.189   0.189   0.189   0.189   0.189   0.189   0.189   0.189   0.189   0.189
   108.12    0.189   0.189   0.189   0.189   0.189   0.189   0.189   0.189   0.189   0.189   0.189   0.189   0.189   0.189   0.189   0.189   0.189   0.189   0.189   0.189   0.189   0.189   0.189   0.189   0.189   0.189   0.189   0.189   0.189   0.189   0.189   0.189   0.189   0.189   0.189   0.189   0.189   0.189   0.189   0.189   0.189
    97.81    0.189   0.189   0.189   0.189   0.189   0.189   0.189   0.189   0.189   0.189   0.189   0.189   0.189   0.189   0.189   0.189   0.189   0.189   0.189   0.189   0.189   0.189   0.189   0.189   0.189   0.189   0.189   0.189   0.189   0.189   0.189   0.189   0.189   0.189   0.189   0.189   0.189   0.189   0.189   0.189   0.189
    87.50    0.189   0.189   0.189   0.189   0.189   0.189   0.189   0.189   0.189   0.189   0.189   0.189   0.189   0.189   0.189   0.189   0.189   0.189   0.189   0.189   0.189   0.189   0.189   0.189   0.189   0.189   0.189   0.189   0.189   0.189   0.189   0.189   0.189   0.189   0.189   0.189   0.189   0.189   0.189   0.189   0.189
    77.19    0.189   0.189   0.189   0.189   0.189   0.189   0.189   0.189   0.189   0.189   0.189   0.189   0.189   0.189   0.189   0.189   0.189   0.189   0.189   0.189   0.189   0.189   0.189   0.189   0.189   0.189   0.189   0.189   0.189   0.189   0.189   0.189   0.189   0.189   0.189   0.189   0.189   0.189   0.189   0.189   0.189
    66.88    0.189   0.189   0.189   0.189   0.189   0.189   0.189   0.189   0.189   0.189   0.189   0.189   0.189   0.189   0.189   0.189   0.189   0.189   0.189   0.189   0.189   0.189   0.189   0.189   0.189   0.189   0.189   0.189   0.189   0.189   0.189   0.189   0.189   0.189   0.189   0.189   0.189   0.189   0.189   0.189   0.189
    56.56    0.189   0.189   0.189   0.189   0.189   0.189   0.189   0.189   0.189   0.189   0.189   0.189   0.189   0.189   0.189   0.189   0.189   0.189   0.189   0.189   0.189   0.189   0.189   0.189   0.189   0.189   0.189   0.189   0.189   0.189   0.189   0.189   0.189   0.189   0.189   0.189   0.189   0.189   0.189   0.189   0.189
    46.25    0.189   0.189   0.189   0.189   0.189   0.189   0.189   0.189   0.189   0.189   0.189   0.189   0.189   0.189   0.189   0.189   0.189   0.189   0.189   0.189   0.189   0.189   0.189   0.189   0.189   0.189   0.189   0.189   0.189   0.189   0.189   0.189   0.189   0.189   0.189   0.189   0.189   0.189   0.189   0.189   0.189
    35.94    0.189   0.189   0.189   0.189   0.189   0.189   0.189   0.189   0.189   0.189   0.189   0.189   0.189   0.189   0.189   0.189   0.189   0.189   0.189   0.189   0.189   0.189   0.189   0.189   0.189   0.189   0.189   0.189   0.189   0.189   0.189   0.189   0.189   0.189   0.189   0.189   0.189   0.189   0.189   0.189   0.189
    25.62    0.189   0.189   0.189   0.189   0.189   0.189   0.189   0.189   0.189   0.189   0.189   0.189   0.189   0.189   0.189   0.189   0.189   0.189   0.189   0.189   0.189   0.189   0.189   0.189   0.189   0.189   0.189   0.189   0.189   0.189   0.189   0.189   0.189   0.189   0.189   0.189   0.189   0.189   0.189   0.189   0.189
    15.31    0.189   0.189   0.189   0.189   0.189   0.189   0.189   0.189   0.189   0.189   0.189   0.189   0.189   0.189   0.189   0.189   0.189   0.189   0.189   0.189   0.189   0.189   0.189   0.189   0.189   0.189   0.189   0.189   0.189   0.189   0.189   0.189   0.189   0.189   0.189   0.189   0.189   0.189   0.189   0.189   0.189
     5.00    0.189   0.189   0.189   0.189   0.189   0.189   0.189   0.189   0.189   0.189   0.189   0.189   0.189   0.189   0.189   0.189   0.189   0.189   0.189   0.189   0.189   0.189   0.189   0.189   0.189   0.189   0.189   0.189   0.189   0.189   0.189   0.189   0.189   0.189   0.189   0.189   0.189   0.189   0.189   0.189   0.189

   Height   Standard deviation at grid points for the w component:
   335.00    0.118   0.118   0.118   0.118   0.118   0.118   0.118   0.118   0.118   0.118   0.118   0.118   0.118   0.118   0.118   0.118   0.118   0.118   0.118   0.118   0.118   0.118   0.118   0.118   0.118   0.118   0.118   0.118   0.118   0.118   0.118   0.118   0.118   0.118   0.118   0.118   0.118   0.118   0.118   0.118   0.118
   324.69    0.118   0.118   0.118   0.118   0.118   0.118   0.118   0.118   0.118   0.118   0.118   0.118   0.118   0.118   0.118   0.118   0.118   0.118   0.118   0.118   0.118   0.118   0.118   0.118   0.118   0.118   0.118   0.118   0.118   0.118   0.118   0.118   0.118   0.118   0.118   0.118   0.118   0.118   0.118   0.118   0.118
   314.38    0.118   0.118   0.118   0.118   0.118   0.118   0.118   0.118   0.118   0.118   0.118   0.118   0.118   0.118   0.118   0.118   0.118   0.118   0.118   0.118   0.118   0.118   0.118   0.118   0.118   0.118   0.118   0.118   0.118   0.118   0.118   0.118   0.118   0.118   0.118   0.118   0.118   0.118   0.118   0.118   0.118
   304.06    0.118   0.118   0.118   0.118   0.118   0.118   0.118   0.118   0.118   0.118   0.118   0.118   0.118   0.118   0.118   0.118   0.118   0.118   0.118   0.118   0.118   0.118   0.118   0.118   0.118   0.118   0.118   0.118   0.118   0.118   0.118   0.118   0.118   0.118   0.118   0.118   0.118   0.118   0.118   0.118   0.118
   293.75    0.118   0.118   0.118   0.118   0.118   0.118   0.118   0.118   0.118   0.118   0.118   0.118   0.118   0.118   0.118   0.118   0.118   0.118   0.118   0.118   0.118   0.118   0.118   0.118   0.118   0.118   0.118   0.118   0.118   0.118   0.118   0.118   0.118   0.118   0.118   0.118   0.118   0.118   0.118   0.118   0.118
   283.44    0.118   0.118   0.118   0.118   0.118   0.118   0.118   0.118   0.118   0.118   0.118   0.118   0.118   0.118   0.118   0.118   0.118   0.118   0.118   0.118   0.118   0.118   0.118   0.118   0.118   0.118   0.118   0.118   0.118   0.118   0.118   0.118   0.118   0.118   0.118   0.118   0.118   0.118   0.118   0.118   0.118
   273.12    0.118   0.118   0.118   0.118   0.118   0.118   0.118   0.118   0.118   0.118   0.118   0.118   0.118   0.118   0.118   0.118   0.118   0.118   0.118   0.118   0.118   0.118   0.118   0.118   0.118   0.118   0.118   0.118   0.118   0.118   0.118   0.118   0.118   0.118   0.118   0.118   0.118   0.118   0.118   0.118   0.118
   262.81    0.118   0.118   0.118   0.118   0.118   0.118   0.118   0.118   0.118   0.118   0.118   0.118   0.118   0.118   0.118   0.118   0.118   0.118   0.118   0.118   0.118   0.118   0.118   0.118   0.118   0.118   0.118   0.118   0.118   0.118   0.118   0.118   0.118   0.118   0.118   0.118   0.118   0.118   0.118   0.118   0.118
   252.50    0.118   0.118   0.118   0.118   0.118   0.118   0.118   0.118   0.118   0.118   0.118   0.118   0.118   0.118   0.118   0.118   0.118   0.118   0.118   0.118   0.118   0.118   0.118   0.118   0.118   0.118   0.118   0.118   0.118   0.118   0.118   0.118   0.118   0.118   0.118   0.118   0.118   0.118   0.118   0.118   0.118
   242.19    0.118   0.118   0.118   0.118   0.118   0.118   0.118   0.118   0.118   0.118   0.118   0.118   0.118   0.118   0.118   0.118   0.118   0.118   0.118   0.118   0.118   0.118   0.118   0.118   0.118   0.118   0.118   0.118   0.118   0.118   0.118   0.118   0.118   0.118   0.118   0.118   0.118   0.118   0.118   0.118   0.118
   231.88    0.118   0.118   0.118   0.118   0.118   0.118   0.118   0.118   0.118   0.118   0.118   0.118   0.118   0.118   0.118   0.118   0.118   0.118   0.118   0.118   0.118   0.118   0.118   0.118   0.118   0.118   0.118   0.118   0.118   0.118   0.118   0.118   0.118   0.118   0.118   0.118   0.118   0.118   0.118   0.118   0.118
   221.56    0.118   0.118   0.118   0.118   0.118   0.118   0.118   0.118   0.118   0.118   0.118   0.118   0.118   0.118   0.118   0.118   0.118   0.118   0.118   0.118   0.118   0.118   0.118   0.118   0.118   0.118   0.118   0.118   0.118   0.118   0.118   0.118   0.118   0.118   0.118   0.118   0.118   0.118   0.118   0.118   0.118
   211.25    0.118   0.118   0.118   0.118   0.118   0.118   0.118   0.118   0.118   0.118   0.118   0.118   0.118   0.118   0.118   0.118   0.118   0.118   0.118   0.118   0.118   0.118   0.118   0.118   0.118   0.118   0.118   0.118   0.118   0.118   0.118   0.118   0.118   0.118   0.118   0.118   0.118   0.118   0.118   0.118   0.118
   200.94    0.118   0.118   0.118   0.118   0.118   0.118   0.118   0.118   0.118   0.118   0.118   0.118   0.118   0.118   0.118   0.118   0.118   0.118   0.118   0.118   0.118   0.118   0.118   0.118   0.118   0.118   0.118   0.118   0.118   0.118   0.118   0.118   0.118   0.118   0.118   0.118   0.118   0.118   0.118   0.118   0.118
   190.62    0.118   0.118   0.118   0.118   0.118   0.118   0.118   0.118   0.118   0.118   0.118   0.118   0.118   0.118   0.118   0.118   0.118   0.118   0.118   0.118   0.118   0.118   0.118   0.118   0.118   0.118   0.118   0.118   0.118   0.118   0.118   0.118   0.118   0.118   0.118   0.118   0.118   0.118   0.118   0.118   0.118
   180.31    0.118   0.118   0.118   0.118   0.118   0.118   0.118   0.118   0.118   0.118   0.118   0.118   0.118   0.118   0.118   0.118   0.118   0.118   0.118   0.118   0.118   0.118   0.118   0.118   0.118   0.118   0.118   0.118   0.118   0.118   0.118   0.118   0.118   0.118   0.118   0.118   0.118   0.118   0.118   0.118   0.118
   170.00    0.118   0.118   0.118   0.118   0.118   0.118   0.118   0.118   0.118   0.118   0.118   0.118   0.118   0.118   0.118   0.118   0.118   0.118   0.118   0.118   0.118   0.118   0.118   0.118   0.118   0.118   0.118   0.118   0.118   0.118   0.118   0.118   0.118   0.118   0.118   0.118   0.118   0.118   0.118   0.118   0.118
   159.69    0.118   0.118   0.118   0.118   0.118   0.118   0.118   0.118   0.118   0.118   0.118   0.118   0.118   0.118   0.118   0.118   0.118   0.118   0.118   0.118   0.118   0.118   0.118   0.118   0.118   0.118   0.118   0.118   0.118   0.118   0.118   0.118   0.118   0.118   0.118   0.118   0.118   0.118   0.118   0.118   0.118
   149.38    0.118   0.118   0.118   0.118   0.118   0.118   0.118   0.118   0.118   0.118   0.118   0.118   0.118   0.118   0.118   0.118   0.118   0.118   0.118   0.118   0.118   0.118   0.118   0.118   0.118   0.118   0.118   0.118   0.118   0.118   0.118   0.118   0.118   0.118   0.118   0.118   0.118   0.118   0.118   0.118   0.118
   139.06    0.118   0.118   0.118   0.118   0.118   0.118   0.118   0.118   0.118   0.118   0.118   0.118   0.118   0.118   0.118   0.118   0.118   0.118   0.118   0.118   0.118   0.118   0.118   0.118   0.118   0.118   0.118   0.118   0.118   0.118   0.118   0.118   0.118   0.118   0.118   0.118   0.118   0.118   0.118   0.118   0.118
   128.75    0.118   0.118   0.118   0.118   0.118   0.118   0.118   0.118   0.118   0.118   0.118   0.118   0.118   0.118   0.118   0.118   0.118   0.118   0.118   0.118   0.118   0.118   0.118   0.118   0.118   0.118   0.118   0.118   0.118   0.118   0.118   0.118   0.118   0.118   0.118   0.118   0.118   0.118   0.118   0.118   0.118
   118.44    0.118   0.118   0.118   0.118   0.118   0.118   0.118   0.118   0.118   0.118   0.118   0.118   0.118   0.118   0.118   0.118   0.118   0.118   0.118   0.118   0.118   0.118   0.118   0.118   0.118   0.118   0.118   0.118   0.118   0.118   0.118   0.118   0.118   0.118   0.118   0.118   0.118   0.118   0.118   0.118   0.118
   108.12    0.118   0.118   0.118   0.118   0.118   0.118   0.118   0.118   0.118   0.118   0.118   0.118   0.118   0.118   0.118   0.118   0.118   0.118   0.118   0.118   0.118   0.118   0.118   0.118   0.118   0.118   0.118   0.118   0.118   0.118   0.118   0.118   0.118   0.118   0.118   0.118   0.118   0.118   0.118   0.118   0.118
    97.81    0.118   0.118   0.118   0.118   0.118   0.118   0.118   0.118   0.118   0.118   0.118   0.118   0.118   0.118   0.118   0.118   0.118   0.118   0.118   0.118   0.118   0.118   0.118   0.118   0.118   0.118   0.118   0.118   0.118   0.118   0.118   0.118   0.118   0.118   0.118   0.118   0.118   0.118   0.118   0.118   0.118
    87.50    0.118   0.118   0.118   0.118   0.118   0.118   0.118   0.118   0.118   0.118   0.118   0.118   0.118   0.118   0.118   0.118   0.118   0.118   0.118   0.118   0.118   0.118   0.118   0.118   0.118   0.118   0.118   0.118   0.118   0.118   0.118   0.118   0.118   0.118   0.118   0.118   0.118   0.118   0.118   0.118   0.118
    77.19    0.118   0.118   0.118   0.118   0.118   0.118   0.118   0.118   0.118   0.118   0.118   0.118   0.118   0.118   0.118   0.118   0.118   0.118   0.118   0.118   0.118   0.118   0.118   0.118   0.118   0.118   0.118   0.118   0.118   0.118   0.118   0.118   0.118   0.118   0.118   0.118   0.118   0.118   0.118   0.118   0.118
    66.88    0.118   0.118   0.118   0.118   0.118   0.118   0.118   0.118   0.118   0.118   0.118   0.118   0.118   0.118   0.118   0.118   0.118   0.118   0.118   0.118   0.118   0.118   0.118   0.118   0.118   0.118   0.118   0.118   0.118   0.118   0.118   0.118   0.118   0.118   0.118   0.118   0.118   0.118   0.118   0.118   0.118
    56.56    0.118   0.118   0.118   0.118   0.118   0.118   0.118   0.118   0.118   0.118   0.118   0.118   0.118   0.118   0.118   0.118   0.118   0.118   0.118   0.118   0.118   0.118   0.118   0.118   0.118   0.118   0.118   0.118   0.118   0.118   0.118   0.118   0.118   0.118   0.118   0.118   0.118   0.118   0.118   0.118   0.118
    46.25    0.118   0.118   0.118   0.118   0.118   0.118   0.118   0.118   0.118   0.118   0.118   0.118   0.118   0.118   0.118   0.118   0.118   0.118   0.118   0.118   0.118   0.118   0.118   0.118   0.118   0.118   0.118   0.118   0.118   0.118   0.118   0.118   0.118   0.118   0.118   0.118   0.118   0.118   0.118   0.118   0.118
    35.94    0.118   0.118   0.118   0.118   0.118   0.118   0.118   0.118   0.118   0.118   0.118   0.118   0.118   0.118   0.118   0.118   0.118   0.118   0.118   0.118   0.118   0.118   0.118   0.118   0.118   0.118   0.118   0.118   0.118   0.118   0.118   0.118   0.118   0.118   0.118   0.118   0.118   0.118   0.118   0.118   0.118
    25.62    0.118   0.118   0.118   0.118   0.118   0.118   0.118   0.118   0.118   0.118   0.118   0.118   0.118   0.118   0.118   0.118   0.118   0.118   0.118   0.118   0.118   0.118   0.118   0.118   0.118   0.118   0.118   0.118   0.118   0.118   0.118   0.118   0.118   0.118   0.118   0.118   0.118   0.118   0.118   0.118   0.118
    15.31    0.118   0.118   0.118   0.118   0.118   0.118   0.118   0.118   0.118   0.118   0.118   0.118   0.118   0.118   0.118   0.118   0.118   0.118   0.118   0.118   0.118   0.118   0.118   0.118   0.118   0.118   0.118   0.118   0.118   0.118   0.118   0.118   0.118   0.118   0.118   0.118   0.118   0.118   0.118   0.118   0.118
     5.00    0.118   0.118   0.118   0.118   0.118   0.118   0.118   0.118   0.118   0.118   0.118   0.118   0.118   0.118   0.118   0.118   0.118   0.118   0.118   0.118   0.118   0.118   0.118   0.118   0.118   0.118   0.118   0.118   0.118   0.118   0.118   0.118   0.118   0.118   0.118   0.118   0.118   0.118   0.118   0.118   0.118

   Mean standard deviation across all grid points:
      u component:    0.231 m/s
      v component:    0.189 m/s
      w component:    0.118 m/s


U-component (X) statistics from the interpolated hub point:

   Mean =   5.0000 m/s
   TI   =   5.1336 %


Processing complete.  8.375 CPU seconds used.
