
This summary file was generated by TurbSim (from OpenFAST-v3.2.1) on 05-Dec-2024 at 12:14:19.


Runtime Options:

     13428  Random seed #1
    RANLUX  Type of random number generator
         F  Output binary HH turbulence parameters?
         F  Output formatted turbulence parameters?
         F  Output AeroDyn HH files?
         T  Output AeroDyn FF files?
         F  Output BLADED FF files?
         T  Output tower data?
         F  Output HAWC FF files?
         F  Output formatted FF files?
         F  Output coherent turbulence time step file?
 0 -  NONE  IEC turbulence models scaled to exact specified standard deviation


Turbine/Model Specifications:

         4  Vertical grid-point matrix dimension
         4  Horizontal grid-point matrix dimension
     0.010  Time step [seconds]
   630.000  Analysis time [seconds]
   600.000  Usable output time [seconds]
    90.000  Hub height [m]
   145.000  Grid height [m]
   145.000  Grid width [m]
     0.000  Vertical flow angle [degrees]
     0.000  Horizontal flow angle [degrees]


Meteorological Boundary Conditions:

    IECKAI  IEC Kaimal spectral model
         1  IEC standard: IEC 61400-1 Ed. 3: 2005
         B  IEC turbulence characteristic
       NTM  IEC Normal Turbulence Model
       N/A  IEC Extreme Turbulence Model (ETM) "c" parameter [m/s]
       PL   Wind profile type
    90.000  Reference height [m]
    12.000  Reference wind speed [m/s]
       N/A  Jet height [m]
     0.200  Power law exponent
     0.030  Surface roughness length [m]


Non-IEC Meteorological Boundary Conditions:

       N/A  Site latitude [degrees]
       N/A  Gradient Richardson number
       N/A  Friction or shear velocity [m/s]
       N/A  Mixing layer depth [m]
       N/A  Mean hub u'w' Reynolds stress
       N/A  Mean hub u'v' Reynolds stress
       N/A  Mean hub v'w' Reynolds stress


Spatial Coherence Models:

       IEC  u-component coherence model
      NONE  v-component coherence model
      NONE  w-component coherence model
(   12.000, 0.353E-03)  u-component coherence parameters
                   N/A  v-component coherence parameters
                   N/A  w-component coherence parameters
       N/A  Coherence exponent


You have requested that the following file(s) be generated:

   turb12mps.bts (AeroDyn/TurbSim full-field wind file)


Turbulence Simulation Scaling Parameter Summary:

   Turbulence model used                            =  IEC Kaimal
   Turbulence characteristic                        =  B
   IEC turbulence type                              =  Normal Turbulence Model
   IEC standard                                     =  IEC 61400-1 Ed. 3: 2005
   Mean wind speed at hub height                    =   12.000 m/s
   Expected value of turbulence intensity at 15 m/s =   14.000%
   Characteristic value of standard deviation       =    2.044 m/s
   Turbulence scale                                 =   42.000 m
   u-component integral scale                       =  340.200 m
   Coherency scale                                  =  340.200 m
   Characteristic value of hub turbulence intensity =   17.033%
   Gradient Richardson number                       =    0.000

   Wind profile type                                =  Power law
   Power law exponent                               =    0.200
   Mean shear across rotor disk                     =    0.033 (m/s)/m
   Assumed rotor diameter                           =  145.000 m
   Surface roughness length                         =    0.030 m

   Nyquist frequency of turbulent wind field        =   50.000 Hz

   Number of time steps in the FFT                  =    63000
   Number of time steps output                      =    61209
   Number of points simulated                       =       18


Mean Flow Angles:

   Vertical   =   0.0 degrees
   Horizontal =   0.0 degrees

Mean Wind Speed Profile:

   Height    Wind Speed   Horizontal Angle  Vertical Angle  U-comp (X)   V-comp (Y)   W-comp (Z)
     (m)        (m/s)         (degrees)       (degrees)       (m/s)        (m/s)        (m/s)   
   ------    ----------   ----------------  --------------  ----------   ----------   ----------
    162.5       13.51            0.00            0.00         13.51         0.00         0.00
    114.2       12.58            0.00            0.00         12.58         0.00         0.00
     90.0       12.00            0.00            0.00         12.00         0.00         0.00
     65.8       11.27            0.00            0.00         11.27         0.00         0.00
     17.5        8.65            0.00            0.00          8.65         0.00         0.00


Harvested Random Seeds after Generation of the Random Numbers:

     15805125 K 1
            0 K 2


Hub-Height Simulated Turbulence Statistical Summary:

   Type of Wind        Min (m/s)   Mean (m/s)    Max (m/s)  Sigma (m/s)       TI (%)
   ----------------    ---------   ----------    ---------  -----------       ------
   Longitudinal (u)         5.08        12.00        16.94        1.774       14.786
   Lateral (v)             -5.96        -0.00         6.07        1.607       13.391
   Vertical (w)            -3.81         0.00         4.69        1.012        8.431
   U component              5.08        12.00        16.94        1.774       14.786
   V component             -5.96        -0.00         6.07        1.607       13.391
   W component             -3.81         0.00         4.69        1.012        8.431
   Horizontal (U&V)         5.74        12.11        16.95        1.766       14.589
   Total                    5.78        12.15        16.97        1.764       14.515

                       Min Reynolds     Mean Reynolds    Max Reynolds    Correlation
   Product             Stress (m/s)^2   Stress (m/s)^2   Stress (m/s)^2  Coefficient
   ----------------    --------------   --------------   --------------  -----------
   u'w'                    -13.821            -0.049             9.065        -0.027
   u'v'                    -28.058             0.302            16.218         0.106
   v'w'                    -10.910             0.048             9.736         0.030


   Friction Velocity (Ustar)  =      0.221 m/s
   Maximum Instantaneous TKE  =     31.082 (m/s)^2
   Maximum Instantaneous CTKE =     14.199 (m/s)^2


Grid Point Variance Summary:

   Y-coord  -72.50  -24.17   24.17   72.50

   Height   Standard deviation at grid points for the u component:
   162.50    1.846   1.811   1.694   1.706
   114.17    1.939   1.650   1.864   1.804
    65.83    1.620   1.644   1.851   2.055
    17.50    1.954   1.870   2.091   2.005

   Height   Standard deviation at grid points for the v component:
   162.50    1.607   1.607   1.607   1.607
   114.17    1.607   1.607   1.607   1.607
    65.83    1.607   1.607   1.607   1.607
    17.50    1.607   1.607   1.607   1.607

   Height   Standard deviation at grid points for the w component:
   162.50    1.012   1.012   1.012   1.012
   114.17    1.012   1.012   1.012   1.012
    65.83    1.012   1.012   1.012   1.012
    17.50    1.012   1.012   1.012   1.012

   Mean standard deviation across all grid points:
      u component:    1.838 m/s
      v component:    1.607 m/s
      w component:    1.012 m/s


U-component (X) statistics from the interpolated hub point:

   Mean =  11.9286 m/s
   TI   =   9.7714 %


Processing complete.  0 CPU seconds used.
